704     

Si	14.5366964035		14.5406029264		20.0119125987
Si	14.5358935115		14.5398291329		25.4679062594
Si	14.5387861885		20.0110707459		14.5382991027
Si	14.6325986156		20.0012461143		20.0010729132
Si	14.5444800001		19.996361116		25.4615379256
Si	14.538032773		25.4657516998		14.5368697569
Si	14.5419208987		25.4648197135		19.9903143685
Si	20.0086361402		14.5384956583		14.5373049666
Si	20.00035645		14.6305599231		19.999474222
Si	19.9921764287		14.5382716515		25.4619365757
Si	20.0007172689		20.0007068045		14.6293558636
Si	20.0023189441		20.0005374729		19.9992441023
Si	20.0044896511		20.0005652703		25.3694447625
Si	19.9924075618		25.4630935243		14.5375779503
Si	20.0036166249		25.3710542998		19.9994297065
Si	20.0159980334		25.4634431561		25.461765722
Si	25.4636385429		14.535753484		14.5337147741
Si	25.4631391142		14.5370711111		19.9882529377
Si	25.4627664809		19.9903152212		14.5360378415
Si	25.3722153293		19.999254971		19.9979907403
Si	25.4660180914		20.0082643342		25.4599536819
Si	25.4652058491		25.4616330918		20.0078129017
Si	25.4689038972		25.463369545		25.4622846794
Si	14.5878610401		11.8359148656		22.7547710855
Si	14.5093415953		17.2823032526		17.2819492168
Si	14.5741154822		17.2535996899		22.7524105007
Si	14.5929810551		17.2535649139		28.1699723221
Si	14.5910651558		22.754798124		11.8319129395
Si	14.5783953775		22.7485808603		17.2536215845
Si	14.5145431731		22.7235551975		22.7184951685
Si	14.593281288		28.1711391928		17.2476885774
Si	20.0837518823		11.8264049597		17.3530024051
Si	19.9147006274		11.8264932375		22.6458318555
Si	20.084359899		17.3546402319		11.8250004612
Si	19.9950166845		17.2707005726		17.2702444642
Si	20.0069722062		17.2706221256		22.7294416335
Si	19.9188608175		17.3540816281		28.173686271
Si	19.9160916116		22.6473480908		11.825476517
Si	20.0072228116		22.730219139		17.2698031733
Si	19.9987380916		22.7299898228		22.7289438841
Si	20.0908932879		22.646578486		28.1737678794
Si	19.9182355742		28.1752290537		17.3536403363
Si	20.0894318278		28.175029771		22.6462550123
Si	25.4095997998		11.8308856483		17.2447776373
Si	25.409416217		17.2470113727		11.829473611
Si	25.4252674743		17.2520973526		17.2504595454
Si	25.4930902562		17.2795102997		22.7172196118
Si	25.4925209523		22.7189288863		17.2787859322
Si	25.4277705797		22.7465484319		22.7454225347
Si	25.4154302621		22.7516505747		28.166786139
Si	25.4144207998		28.1682122974		22.7513829144
Si	11.826629811		17.3587102289		20.0874796316
Si	11.8301935667		17.2588183393		25.4159299524
Si	11.833197657		22.7553185454		14.5908424988
Si	11.8290406652		22.6503624812		19.9149714853
Si	17.3523114687		11.8276947211		20.0850436402
Si	17.2462619769		11.834411227		25.4103651852
Si	17.2804807274		17.2816567317		14.5092756458
Si	17.2699375465		17.2710703491		19.9966926391
Si	17.2552171484		17.2549819434		25.424772685
Si	17.2541542109		22.7486254197		14.5757973441
Si	17.2737282013		22.7311025228		20.0049559642
Si	17.287511424		22.7223700298		25.4902522384
Si	17.2494055209		28.1704026883		14.5905951042
Si	17.3574724039		28.175721926		19.9157037393
Si	22.7518831812		11.8316805313		14.5884358345
Si	22.6461280143		11.8256619408		19.913860951
Si	22.7472809831		17.2530239045		14.5745783294
Si	22.73104627		17.2700979195		20.0038182397
Si	22.7225225429		17.2798708727		25.4894116368
Si	22.7207562592		22.7197206933		14.5081707422
Si	22.7324276113		22.7295634941		19.9936213899
Si	22.7522677621		22.7471896722		25.4230784913
Si	22.6501351678		28.1745814163		20.0839919654
Si	22.7587367533		28.1689044465		25.4087868993
Si	28.1691825075		17.2464917005		14.5871563095
Si	28.1759104513		17.3525036689		19.9123632792
Si	28.1767552215		22.6452231083		20.082131922
Si	28.1729064182		22.7513878606		25.4072618507
Si	11.8280072892		14.5975341773		22.7571967778
Si	11.8275923275		20.0876869593		17.3544999146
Si	11.830643606		19.9225822294		22.646890279
Si	11.8345547832		25.4126449798		17.2472916324
Si	17.2796670609		14.510584725		17.2812699686
Si	17.2529718023		14.5773061188		22.7481791895
Si	17.2483271218		14.5932345471		28.1691488608
Si	17.3539815426		20.0861693366		11.8256834482
Si	17.2720088621		19.9959212071		17.2703456118
Si	17.2737593251		20.005982557		22.7288315862
Si	17.3591917519		19.9175633708		28.1743080736
Si	17.2484000424		25.4114474221		11.831702861
Si	17.2554685505		25.4258737062		17.2526290188
Si	17.2857067217		25.4925053799		22.719168206
Si	22.7517485761		14.5907125897		11.8299870913
Si	22.7474730198		14.5756295632		17.2512473563
Si	22.7206749419		14.5088220773		22.7180891092
Si	22.6464520052		19.9157718028		11.824746563
Si	22.7309300547		20.0050886767		17.2692025326
Si	22.7327044885		19.9944907648		22.7282762272
Si	22.6515776337		20.0841076016		28.1727468747
Si	22.7218892848		25.4909255271		17.2796177896
Si	22.7514494264		25.424208561		22.7461464535
Si	22.7594335635		25.4095480888		28.1681152868
Si	28.1693696069		14.5891530712		17.2440049445
Si	28.1755976878		19.9143706834		17.3509776494
Si	28.1771040443		20.0833871291		22.6435184883
Si	28.1725418273		25.4086999219		22.7504679083
Si	13.1421711989		15.9467054262		18.6915464342
Si	13.2222055074		15.8849943428		24.1280172972
Si	13.1876938852		21.3899098266		13.1872313446
Si	13.3082973689		21.364917367		18.6380649553
Si	13.1485249157		21.3175890112		24.0570673504
Si	13.1899399459		26.8159547241		18.6123997707
Si	19.1435533517		10.6033336888		19.1448212954
Si	18.1270488213		10.6009788915		23.5882992509
Si	18.6882270913		15.944340413		13.1421923003
Si	18.6220064606		15.9225323027		18.6232093408
Si	18.6399778317		15.9098631231		24.0915401692
Si	18.1318069391		16.4140839048		29.4019198963
Si	18.6376668781		21.3642620089		13.3055106571
Si	18.637627659		21.3655133716		18.6349299125
Si	18.6266529759		21.3778687412		24.0779047098
Si	19.1512244692		20.8554724502		29.3979963268
Si	18.6136609389		26.8147262965		13.1868747671
Si	18.63989876		26.6953535143		18.6369238081
Si	18.694062785		26.8582348334		24.0568690393
Si	23.5875505056		10.5985171944		18.1268631727
Si	24.119075687		15.8806324657		13.225113893
Si	24.0920393125		15.9085198636		18.6367567409
Si	24.0817912708		15.9196227767		24.0776163114
Si	24.0575101904		21.3115578006		13.1411595172
Si	24.0805437009		21.3770968431		18.6209656934
Si	24.09489567		21.3606593092		24.089482142
Si	23.5939035419		21.8703116857		29.400073728
Si	24.0596234875		26.8571730771		18.6875719609
Si	24.1243037597		26.7728109973		24.1181622963
Si	29.402696933		16.4107413592		18.1254476462
Si	29.4000280997		20.8537398882		19.1420362143
Si	29.404989659		21.8696896488		23.5850516772
Si	10.5984697344		16.4214577479		21.8756631175
Si	10.6003653645		21.8742118097		16.4127527018
Si	10.6049286325		20.8604174995		20.8557357166
Si	16.409339096		10.6024917232		21.8722557912
Si	15.9201085536		15.9221695635		15.921203076
Si	15.9074289452		15.9109676359		21.3646121533
Si	15.8817098056		15.8848997503		26.7747360971
Si	16.4124410718		21.8730215777		10.5986398816
Si	15.9105215634		21.3626444138		15.9090476693
Si	15.9250504818		21.3792588139		21.3772973017
Si	15.9503226671		21.3155645103		26.8575154119
Si	15.8827893361		26.7750948012		15.8809361068
Si	15.9476013757		26.8590217333		21.3118202534
Si	21.8701719658		10.5989966114		16.4104926307
Si	20.8541491202		10.6026402802		20.854154787
Si	21.8704593231		16.4126848677		10.597151264
Si	21.3612649532		15.9092319096		15.9081011137
Si	21.3787524525		15.9215820789		21.3766596861
Si	21.3141785876		15.9431114038		26.8564265362
Si	20.8551292759		20.8559149358		10.6013340928
Si	21.3789049267		21.3778371611		15.9205649175
Si	21.3677820614		21.3647163396		21.3636854702
Si	21.3684332404		21.3632354194		26.6933060834
Si	21.3135758919		26.857892104		15.9430127357
Si	21.3671513303		26.6947342073		21.3626822689
Si	21.3948632039		26.8139144492		26.8132274887
Si	26.7738922618		15.8797463666		15.8776122653
Si	26.8590989396		15.9421479993		21.3086535623
Si	26.8585728264		21.3108000941		15.9410751953
Si	26.6969709287		21.3621719959		21.3608650781
Si	26.8179211965		21.3864509628		26.8109014805
Si	26.8170784187		26.8125496918		21.3860726734
Si	10.6038042965		19.1496385305		19.1466411923
Si	10.6012680558		18.1395811413		23.59086599
Si	10.6007720907		23.5917166142		18.1288433115
Si	15.9414875691		13.1450725488		18.6900385231
Si	15.8790177672		13.2305738915		24.1213486779
Si	15.9436213142		18.6901285152		13.1427137803
Si	15.9230821703		18.6237783351		18.6228000936
Si	15.9116790836		18.6405361264		24.0909721402
Si	16.4162549579		18.1322739103		29.4025504211
Si	15.88182178		24.1212312229		13.2271763705
Si	15.9121249219		24.092717126		18.6386521864
Si	15.9262172445		24.0820230311		24.0794887318
Si	16.4153319985		29.4031799571		18.1295753756
Si	21.3868041173		13.187319588		13.1854894693
Si	21.3630498636		13.3061343213		18.6357817711
Si	21.3120251107		13.1426844271		24.0556750499
Si	21.3633133047		18.6374608268		13.3048248642
Si	21.3660112154		18.635383187		18.6343625442
Si	21.3807384772		18.6222763639		24.0775088905
Si	20.8603938129		19.144766825		29.3969410207
Si	21.3126599253		24.0574747288		13.142078386
Si	21.3801296634		24.0788172267		18.6217167457
Si	21.366052326		24.0910504247		24.0902792096
Si	21.8777336255		23.5877537776		29.4008831346
Si	20.8586122963		29.3985754613		19.1449144391
Si	21.8763513888		29.4019238331		23.5874992221
Si	26.8139699362		13.1858444839		18.6091484094
Si	26.8134917851		18.61165879		13.1843486397
Si	26.695782947		18.6359606675		18.6343736987
Si	26.8604305194		18.687291298		24.054074374
Si	26.8596691827		24.0559321119		18.6865478901
Si	26.7773846864		24.1185408442		24.1175253177
Si	13.1834702213		13.1932383414		21.3924861386
Si	13.1436142426		18.6906342826		15.9442061198
Si	13.3084344405		18.6395816644		21.3657488244
Si	13.1924398162		18.6218914745		26.8152241151
Si	13.2294412783		24.1209682341		15.8814597836
Si	13.146622098		24.0602576248		21.3109927254
Si	18.6873728555		13.1437867792		15.9432516198
Si	18.636579681		13.3071400046		21.3630691947
Si	18.6122798188		13.1887111862		26.8135683243
Si	19.1448981979		19.1462835244		10.6014560269
Si	18.6232886247		18.6232401079		15.921110389
Si	18.6378605305		18.6357373335		21.363848613
Si	18.6409651136		18.6381458665		26.6939967903
Si	18.1295367415		23.5895911546		10.5985947816
Si	18.6406232192		24.0921068632		15.9087348958
Si	18.6266095746		24.0795601588		21.3771131417
Si	18.6958322539		24.0585920739		26.857360751
Si	18.1316791122		29.4028628213		16.4123493405
Si	19.1492203097		29.398857521		20.8552758821
Si	24.1193391289		13.2266367739		15.8784184622
Si	24.057482272		13.142178821		21.3094385195
Si	23.5876416562		18.1291826336		10.5970535869
Si	24.0918784422		18.6385366612		15.9073616893
Si	24.0808278808		18.6218442653		21.3757386222
Si	24.0608572295		18.6875079771		26.8553513147
Si	24.0812850633		24.0794244714		15.9192342586
Si	24.0944450157		24.0906899977		21.3599605713
Si	24.1250724236		24.1189641293		26.7720043001
Si	23.592753857		29.4016055039		21.8702550884
Si	29.4025038654		18.1277753225		16.4087798567
Si	29.4002620787		19.1436376253		20.8518018381
Si	29.4047358688		23.5866948529		21.8683666767
C	10.817649417919618		11.620778021692235		20.99398678472705
C	12.098748419534608		12.114468373937848		20.334547591199183
H	11.029763830478917		11.041627054597836		21.89952628369893
H	10.164975030355778		12.455674195223324		21.271777229561483
H	11.83267667137262		12.668506941854156		19.426936705691926
H	12.682498180251876		11.24565285891568		20.009741761788295
C	9.816807829442615		10.755574774333601		20.225456072565915
O	8.836792272999041		10.32052785904532		20.896494616560776
O	10.077237908116096		10.568557519540578		19.00185901575685
H	12.033388127758542		12.358311880488923		21.80553454131547
C	23.402240755267922		7.739042715173378		18.259555542049206
C	24.192625647621593		8.949580479361135		18.73882050969694
H	22.349397854428354		7.804223846095889		18.55566936682506
H	23.441414741414953		7.6437264304916805		17.16887538146874
H	25.238521121095893		8.825753469957203		18.435044342580344
H	24.185371467595797		8.96083845726011		19.83468712745011
C	23.81300298913366		6.319939582083623		18.657450861052165
O	23.032282750572566		5.396737181219844		18.28574900063112
O	24.889053219682772		6.222834655807498		19.315231653967338
C	27.238803345772066		11.593559059055844		20.957059175536617
C	27.880531874482887		12.090079506846548		19.668084076411596
H	26.92969895824131		12.426447514903138		21.59827789689895
H	26.35536033873704		10.979140369746105		20.751581353016
H	28.187973534231627		11.22141415071771		19.074442303696348
H	28.79702533515619		12.635308286644596		19.920805906341283
C	27.991049407616117		10.65552118550215		21.903162135165736
O	27.403665654195656		10.383404923493355		22.98986453374046
O	29.11928332957967		10.253206609325325		21.49668921352593
C	15.62013673449007		25.939075371703765		26.244254906575037
C	14.879818689202335		25.195007203673985		25.140580761301102
H	16.11809736798658		25.246028620649998		26.931373207336684
H	16.380796377896353		26.610713378551743		25.83133566186695
H	14.385291912405826		25.930264642350288		24.495328721162974
H	14.08412662047413		24.594586643184808		25.596072025108533
C	14.887663725259177		26.915183192123315		27.16707493976896
O	15.576289408205566		27.40350091943995		28.10905662901506
O	13.672404310891643		27.128667848319317		26.888582759878833
C	19.67520068283518		10.91793866242595		12.799658983764067
C	20.326990149144045		12.106301900579432		12.104843776954251
H	20.423544417938118		10.255931430406335		13.249256837168542
H	18.99301390810632		11.244580403665662		13.592205124543849
H	19.53945907174605		12.723512657729298		11.657232212323887
H	20.940304383096898		11.734106056914325		11.276339755546239
C	18.74904683645849		9.968247818458511		12.037276957660298
O	18.340297819755655		8.961229561661753		12.684445798630318
O	18.49190939749583		10.292456979831783		10.841970388588848
C	21.62244429958958		8.853538531599806		22.9939928313787
C	21.482437866586373		8.968308363534195		21.481699556185205
H	22.303738762307617		9.61326726003397		23.392816432939025
H	20.654789353021247		8.97124796022852		23.493984234098527
H	20.808946145363965		8.177005041366737		21.13276061715486
H	22.458531513114075		8.771467335813396		21.02388101995707
C	22.093553841659293		7.552463233144709		23.646801277341872
O	22.26762809209613		7.596924472496264		24.898883698922088
O	22.258198114528575		6.572554365484301		22.864075328243565
C	32.21333096534372		22.23363943542473		24.042545858255313
C	31.053777345342827		21.257160559097056		24.189954379815845
H	32.36318133715637		22.523875203466595		22.99673602089636
H	32.043136737187844		23.14550350106933		24.625418793369413
H	30.959508259319108		20.984784053754623		25.247515162067955
H	31.301757031263392		20.33544194343872		23.651397160924834
C	33.61693864771798		21.87235814068724		24.532710422511816
O	34.52395471326715		22.71499496252208		24.273337948598773
O	33.719088984076635		20.769967151883098		25.144501607055396
C	18.28889303056596		16.621825787716883		32.258615283587574
C	18.756749087882476		15.821132842205197		31.05039080840092
H	18.58601719396008		17.673656556178695		32.18259280701402
H	17.198998510444483		16.585108312750066		32.36342353727608
H	18.4524679576125		14.776725654954012		31.185064675129755
H	19.852491346273908		15.826589148018641		31.029844738165558
C	18.698132132694894		16.22169491036466		33.67752988224319
O	18.335396898540917		17.010280328147026		34.597608805849354
O	19.355102256983457		15.145423237469522		33.77762273321555
C	24.635145706850768		29.305449751934294		17.30798623891825
C	25.10417047038786		27.87382083501756		17.532172057463505
H	23.61780429254319		29.33565382167485		16.902382600120752
H	24.64406702911542		29.878659614134193		18.241556735391775
H	26.129770193144704		27.899244886662853		17.9181892276503
H	25.148251251553322		27.364113261294342		16.562967185869766
C	25.42174169041365		30.26251381309514		16.410102537386116
O	24.892211085302144		31.394688136012505		16.215763458256767
O	26.516819384256213		29.818449784190438		15.958880840676635
C	28.730885626703554		12.704143955959756		15.155948034172798
C	29.322887340934642		13.431171547159417		16.356268707068953
H	27.859024793930597		12.104437259655588		15.439885910449256
H	28.417623817254974		13.40882209182136		14.377810018407203
H	30.19986483486501		13.998012920533213		16.02293439744673
H	29.68706543315158		12.68569061577476		17.07232422669791
C	29.579757831054305		11.750016192611508		14.31335905258761
O	28.964390953148822		11.126035844783082		13.401239998954381
O	30.805447179334948		11.687997386980058		14.619673149813671
C	11.778004203927983		18.94885755847567		12.65564871452237
C	12.106865945683975		20.330657526558053		12.105845414407922
H	12.68586271038885		18.364396228156146		12.841681067912248
H	11.220709267313733		19.016427792739183		13.59642479046483
H	11.167778062510212		20.86441442282341		11.919491040256437
H	12.59694480466874		20.21262552323327		11.132709161220667
C	10.869095676972751		17.988597536761905		11.885787700880067
O	10.741007420220505		16.83337887699924		12.384839084525401
O	10.343696524580011		18.453408069540252		10.833221343739911
C	12.267154083002694		12.827606337244415		25.854759938998743
C	13.446866854806704		13.492094349440848		26.55228293036873
H	11.60775349966666		13.567905509550794		25.388328639578788
H	12.603417681193223		12.13545108581297		25.07498374774395
H	14.06159310566074		12.712463910816183		27.01682404273754
H	13.064868908670318		14.115756531450153		27.368509651922842
C	11.312278223401755		11.90948892335259		26.62037897419834
O	10.312805927863005		11.489161072982569		25.96894312505138
O	11.6252134989435		11.669708355436622		27.82227989751586
C	7.925619233027284		15.482560457853616		22.326088851506363
C	8.947816138008154		15.832616138189962		21.252599506467586
H	8.296370164303248		14.695396495555908		22.991916752932685
H	7.67734709148767		16.35538464829432		22.93988188202794
H	8.521649475733069		16.60717398743435		20.60456205111549
H	9.108162504900179		14.951246616214462		20.621267725660374
C	6.515720132159338		15.02011545931569		21.9529546280706
O	5.780685296406599		14.66246923289982		22.91825354750459
O	6.237065159468431		15.045272799331782		20.71937951834361
C	27.927966818873692		24.027204983511957		28.704059129979605
C	26.625792188602496		23.548700037595836		29.33269186442149
H	28.467842119053003		23.203940384245044		28.223247097320073
H	27.745724883465343		24.79905263857958		27.94825354496106
H	26.136720948945065		24.40300379410401		29.814858685714675
H	26.863418752614216		22.834804499899764		30.129554328359667
C	28.996240073307106		24.73324581462523		29.541435149855452
O	30.077289512921894		25.00081065759244		28.941660024648943
O	28.68325815709554		24.97331048529061		30.743267214215052
C	28.844177130626846		28.818968125441764		21.079972776230704
C	27.897785684465873		27.893628973836364		20.326384326916664
H	28.297799423201756		29.49643767785939		21.745492540983008
H	29.55753212683575		28.25099239138807		21.687205205297175
H	28.490752595437044		27.253172402005823		19.663273437628618
H	27.25485929642601		28.501638162137525		19.679798295824607
C	29.814449201278876		29.735398849442873		20.331890670429864
O	30.484629734986385		30.53128752119847		21.051201668059292
O	29.841875261427617		29.598405899014203		19.074723307006217
C	9.500020136340737		27.07604985192352		17.354871741200057
C	10.518644983630324		26.435241739946157		16.421290866337962
H	8.970180145288804		26.322903592271615		17.9485471123874
H	9.979417248717102		27.776559729155068		18.047451937672818
H	11.004413601526597		27.226774230504798		15.839040408495995
H	9.985399632811385		25.80218051535222		15.702969287345928
C	8.385489343346737		27.97246686830265		16.811587612760707
O	7.538306958365232		28.37287585887201		17.66126030488884
O	8.431345941710514		28.21656413570564		15.571304284914646
C	10.561237770813792		14.828067165873517		18.129432257078566
C	12.007208630399756		14.898232138976814		17.656093038781965
H	10.491431277905665		14.43374515261781		19.149259376893408
H	10.089013771059422		15.816515011229841		18.116077143210635
H	12.019618415850722		15.278859591868331		16.628241313711477
H	12.412402450706528		13.880697599554978		17.616793698217602
C	9.513217279104298		14.030930315658411		17.3502494216759
O	8.36834201474847		13.959405454396881		17.883291502742388
O	9.904586359342407		13.529329411749597		16.256990160049714
C	24.348407152187704		9.582971497839424		13.799157582744355
C	23.391939168525475		10.656477471746859		13.296605310822166
H	25.232802341421515		10.023245430097194		14.272881304690358
H	23.863422421441513		8.92804433876379		14.531320976563087
H	22.5378336767001		10.165374286562933		12.816155625906111
H	23.896771304561977		11.237721819696526		12.51660368806655
C	24.921373249666647		8.528828834819087		12.849740341938107
O	25.779755578809855		7.746184289392411		13.35037626696602
O	24.474942309981436		8.553565474998123		11.666492036794832
C	31.00952588062486		14.605129752208217		19.67024819111554
C	31.051426373091534		15.817950212362035		18.74985928094586
H	30.399985497629626		14.797446044782046		20.560127461583548
H	30.59378183511146		13.73035238079391		19.158267286118463
H	31.687071251288817		15.580633793032323		17.888960369726842
H	31.540070224981598		16.643161462008354		19.280289849981244
C	32.29588216369019		13.991305522556432		20.22649213769901
O	32.14167834387808		13.049581612334809		21.056772991249332
O	33.374950928354046		14.491701847427631		19.796139774998153
C	23.44613775658919		25.907748738808284		30.908329645080215
C	23.58527814695016		26.43125175927111		29.484816594512537
H	22.394557348853557		25.824744329841142		31.20446992443879
H	23.90684684666408		24.919696938769405		31.016513667755923
H	24.651956366384084		26.513762806077807		29.246279526659062
H	23.177064766151915		27.447525100031257		29.444155289842396
C	24.107211993066628		26.63071425680096		32.08357502952525
O	23.847269350644144		26.16675280275474		33.231250344546766
O	24.842454049276455		27.61447374248945		31.78087810189257
C	13.499752422212369		22.85018786669016		9.18078514546611
C	13.568652084568587		23.58042876311156		10.515628183250278
H	14.496384715820533		22.711163065620642		8.74741887206114
H	13.03780769854935		21.8628194880414		9.289935340722096
H	12.548531644152066		23.710622571184572		10.894988551217004
H	13.968371411703972		24.58635840676323		10.344067638143725
C	12.664234928030588		23.399297350077383		8.022644699677944
O	12.755212275666288		22.76728491926336		6.93073241088652
O	11.97253688477415		24.4261087325942		8.281876716583866
C	9.74213681453039		16.92948108595251		27.355026968816773
C	10.863120965160176		16.21380701492017		26.61272647448256
H	10.122042799397933		17.77908585476602		27.933173429820524
H	8.981473559823218		17.305265746752163		26.661932235287523
H	10.43432917405117		15.36436002709818		26.06858692973537
H	11.558072640412382		15.79393857492848		27.348834938815838
C	8.844443861359986		16.180212334204374		28.34176082324865
O	8.010113017461384		16.889865473176663		28.974432540781702
O	9.03335107375168		14.931849654269325		28.41853139932948
C	23.719797455763633		30.773533259245962		26.13046019088953
C	23.821365730314028		29.287333999936962		26.44779363229499
H	23.989648751975178		30.980947367616476		25.089033373258154
H	22.704019133957516		31.14832155372597		26.297586320712238
H	23.561308721806373		29.137252335810825		27.502002471102166
H	24.86642769254808		28.976400406973852		26.33702899462318
C	24.51172014731047		31.80806224116822		26.932649841892406
O	24.429276375706422		33.00204958402308		26.52327680110187
O	25.163540806240782		31.35788095143346		27.918781512545166
C	19.796731792673167		15.349889593893366		8.92423118183107
C	21.24510752727558		15.820442119959086		8.94858107768476
H	19.631049704116393		14.524409522146847		9.625331921797036
H	19.109545124016222		16.161106798351607		9.188625087984619
H	21.361091225413716		16.63003540107408		8.218774986767682
H	21.885735183989784		14.999140953404083		8.607753249642126
C	19.14372980592524		14.8714852893722		7.625917765617988
O	17.970522509567843		14.411922579553227		7.737164304519689
O	19.847441477771405		14.987084684717017		6.581209337584888
C	25.184535886651343		17.833563354503113		8.232507261623743
C	24.19306322576334		18.74148610733349		8.94837254462367
H	26.080484824122554		17.660498454062186		8.838918172293715
H	24.738810553623903		16.859645109181557		8.002256991423327
H	23.327860014504367		18.8978295080662		8.2937806307762
H	24.657802591632766		19.723719706713307		9.090982106577464
C	25.734769318877106		18.19825136263065		6.852237060978584
O	26.62387058479778		17.424788970333427		6.392624285329216
O	25.241275101835928		19.23391728202631		6.319462626485663
C	10.81684988284925		25.01138296980033		13.139721628322965
C	10.51673381703885		23.58113084399106		13.568806782413095
H	10.982482585564725		25.66347852451399		14.004445483790043
H	11.708620056114558		25.058372009620317		12.505102848100414
H	10.34038703316626		22.977420514287758		12.671061785753507
H	9.579839602953593		23.575570974261367		14.137402709730692
C	9.836352871629854		25.795575575471222		12.265326083846137
O	10.137902230881465		27.00487159610686		12.04931646528771
O	8.82984538674309		25.150098661987357		11.8526624509364
C	15.297436372722993		32.00476758145487		17.67067182530625
C	15.810302827453167		31.051805401969084		18.74241617443164
H	16.069972808542726		32.223689046667204		16.925238395481543
H	14.430999683290205		31.586396673058815		17.146786099014147
H	15.008759219884602		30.881931670049163		19.47055159437052
H	16.62620452812845		31.542222811094344		19.28546146606213
C	14.736698580772464		33.37969339846465		18.039524270598985
O	14.429671087821196		34.12752514418589		17.066656943794555
O	14.640566596169968		33.62040635584371		19.277589273167997
C	7.746665031198329		22.09582156833973		16.22347832849613
C	8.951536551401952		21.262108524431454		15.807531161154646
H	7.66281712608496		22.16395029687039		17.31377102133457
H	7.809941987288497		23.114339230268154		15.824955045402389
H	8.977997297271486		21.20930864793149		14.71298905078629
H	8.80796867501391		20.236403358421615		16.165888784751747
C	6.334621063278732		21.726490412016187		15.764537886139399
O	5.398618276835056		22.427629447948494		16.246504558183833
O	6.255391923924844		20.759809516474633		14.952602034872676
C	8.77198847393069		22.997223662879748		21.40612745077325
C	8.971318493483338		21.48927277446474		21.484590991564744
H	9.54133678384218		23.53378772969797		21.972353846427694
H	8.806883808730532		23.35053835242316		20.369713414896637
H	8.167868929385389		21.001475641596734		20.920646681799532
H	8.855427803522714		21.174716707923544		22.528011730328632
C	7.460563623398521		23.644701520731864		21.855390497326056
O	7.437669668990912		24.909296932946173		21.83916252277269
O	6.540568824486256		22.845629992668957		22.19462979327155
C	20.247987285424458		31.741643247781063		23.267054728930802
C	21.251959656837602		31.05060072083151		24.180457470981775
H	20.666994733030315		31.917229824377905		22.270053092086695
H	19.337516454198525		31.14357219752541		23.150620660321767
H	20.7919439314707		30.916741273029345		25.166346719350607
H	22.11026588741387		31.716659990331067		24.324604871817442
C	19.626288472810135		33.0859131183285		23.65088946098657
O	18.881023965153254		33.616650965850894		22.77745532624358
O	19.924563724370117		33.52167894949695		24.80029324190644
C	16.52788149564359		26.378761434551272		9.229069984296977
C	16.19713040249769		26.46215906325501		10.713473371422387
H	17.56530596266641		26.67085111166488		9.031980546106885
H	16.383885316092634		25.362891936830298		8.845042287542093
H	15.147174533890595		26.180065433640095		10.853209864537813
H	16.284688403791442		27.506697622997862		11.033435560938246
C	15.718110700958686		27.162853933283287		8.194483007041047
O	16.138244932616		27.098069824994003		7.003147922523311
O	14.715767145781646		27.791385173798165		8.641970340930929
C	16.496607041385076		8.418832558087392		20.014149706465343
C	15.803325136836067		8.953903104394003		21.260289577065766
H	16.396011584322487		9.110659696633181		19.170546769480225
H	17.565219174935372		8.255263015069087		20.191677508867865
H	15.916474505378346		8.21854322851636		22.065245167609554
H	14.72913169270518		9.03127740036298		21.05725097972643
C	16.12161742650121		7.057485192270322		19.425068949427587
O	16.68920691748122		6.754196061199314		18.33610296758828
O	15.284417755157243		6.38199226040446		20.090497417559828
C	32.20599294101101		21.346951957290266		19.47646771704784
C	31.034054235787764		21.481310085486296		18.512978002319485
H	32.017497609344666		21.880526258429015		20.414645805687883
H	32.40463089978161		20.297136673814787		19.71861197140204
H	31.28076651986068		20.94860914502419		17.587303552894465
H	30.921210588005973		22.53779345685105		18.24425471288392
C	33.61404571228667		21.789662911236157		19.073609920102978
O	34.49206033532332		21.724414869703075		19.9818070637397
O	33.748393422919335		22.173211448049393		17.875765919635395
C	20.96550236892342		22.852259672395856		8.544402703861014
C	21.4835955831423		21.483823267628946		8.967210098887353
H	19.872265190034565		22.862968281487017		8.47279301676166
H	21.265329386753542		23.6293359484062		9.256062193112008
H	22.578446980265184		21.52165260376233		9.004355609326414
H	21.222837469525526		20.755632231297213		8.190778498622953
C	21.42973192567958		23.50382247566398		7.240233684128002
O	20.864035965256946		24.5941608404525		6.938340710490305
O	22.329199834869563		22.881944990684005		6.604454704519228
C	24.45614862413356		13.957859675713609		9.611190360789942
C	23.801398802746327		13.395417116294135		10.866087131264333
H	23.70995614557714		14.341881013390886		8.906822170101023
H	25.144870987196406		14.774835896481315		9.852881008762186
H	24.586708274856388		13.008412270873936		11.525652679208966
H	23.181191797012133		12.537414135638329		10.582754880498596
C	25.37477570478293		13.09377405164318		8.74494540641939
O	25.786475400405237		13.629550857137152		7.675629918726833
O	25.62355086785182		11.936736625297947		9.191447757114707
C	26.50561342610475		25.52797106259957		15.416356511802073
C	25.12810493430465		25.193205101743963		14.859394239946042
H	26.43511662589951		26.01835336191021		16.393579901096267
H	27.117921631558417		24.62710990909266		15.533535228454523
H	25.25380764827661		24.724436062782775		13.876559134136585
H	24.581784474849798		26.128301483901573		14.691371263074469
C	27.483362904832653		26.404060281533855		14.630625236292165
O	28.559077185437985		26.69905055613156		15.227122144326504
O	27.11063132787428		26.73896097712992		13.469202947661799
C	28.326565483934775		18.99426023756999		27.29044002317819
C	27.898752897191187		20.32663698404619		27.89173318119119
H	27.460996208992437		18.375780623010115		27.02836570633338
H	28.92498701726032		19.139624582741007		26.384369449985734
H	28.798127623102573		20.89609505582168		28.15317731725388
H	27.368446202580394		20.13259118997295		28.831001006975434
C	29.24598244969627		18.041137121829177		28.05668330654872
O	29.459109408451074		16.9219775957652		27.50709446789552
O	29.693898261540344		18.47501981636406		29.157186041567225
C	31.726283006847726		18.26297845010962		14.73238137129832
C	30.90387892247808		19.019077264214342		15.767645091864997
H	32.087269881789915		17.306754133544704		15.12701244385778
H	31.139550214286828		18.05665802720411		13.830505813792861
H	30.585049447741145		19.972614802676514		15.331039596958586
H	31.551373230922124		19.265824223833743		16.616744654667354
C	32.96595972406093		18.893697087733152		14.094968132532605
O	33.62906234646252		18.143465870261693		13.32202759834163
O	33.19416035394903		20.09740263862382		14.409621046349828
C	11.95129975443276		19.20651605507844		29.334415793527807
C	12.11581071038102		19.684383777961994		27.897619548196175
H	11.522099419713989		18.199298211520325		29.375761158388215
H	12.912145012108812		19.186431995418864		29.860320755806192
H	12.52843006981778		20.699776667888244		27.9128829916219
H	11.123884753771993		19.757688645758154		27.437388842937764
C	11.122298979201227		20.005366502568798		30.342133847950752
O	10.971167523275358		19.46932269440274		31.477829826483987
O	10.677395132652784		21.115768118746157		29.930967391370082
C	16.39406644846603		30.78224058000256		13.768865729993063
C	16.198333368684384		29.289177948533045		13.540266942182377
H	16.18668856643439		31.059730187429157		14.80829061073929
H	17.418970286267896		31.09037615947655		13.534712797230652
H	16.398365747113285		29.068712289394462		12.485329801817764
H	15.144868216451808		29.0433260573264		13.715968478094016
C	15.62007889106615		31.814937580820366		12.947050564951635
O	15.78569669403883		33.02264518941688		13.284692553419585
O	14.897979210549568		31.349718866851056		12.018539586841742
C	17.207557818777214		9.566261565872164		27.166081668197663
C	16.358868515681024		10.681041523998767		26.568756817241876
H	17.646187044752654		8.933939221402234		26.386220779510307
H	18.024992916038514		9.969582506323018		27.773811121786387
H	15.929473177799638		11.2694927406607		27.387814348075228
H	15.51564332427496		10.230298497837476		26.03312167085474
C	16.613122180591947		8.568904992988726		28.16248828127361
O	17.377815921878522		7.627077108221371		28.520528438814342
O	15.421040871050915		8.79365305786412		28.520844941149914
C	12.717507507740097		28.33836949660061		20.997269183822283
C	12.10947905181116		27.896973611420425		19.67240091296413
H	12.989986679985504		27.479041523957658		21.61994139857561
H	13.618383153453493		28.941872277760996		20.84103067354985
H	11.83775539690568		28.79046005364955		19.0985031325907
H	11.175296068058394		27.36170501032778		19.877077943065455
C	11.95194722102248		29.25935395867867		21.949427294648224
O	12.508191295944902		29.484199757414945		23.062991811326242
O	10.845280310936108		29.69667792965766		21.520445789887177
C	18.938082265319057		28.614284502739384		10.976697776196104
C	19.67291038436394		27.88122960120417		12.091356025434925
H	18.42029770408618		27.91568555093072		10.310162853194527
H	18.194721220372095		29.31066076239642		11.38003072778999
H	20.1877446385185		28.62111424729242		12.715076179536089
H	20.452355257403525		27.254334389122135		11.643504384753628
C	19.681938280613245		29.553570403688223		10.025214605147148
O	18.995061175474095		30.033711147317927		9.07776869870057
O	20.90363327533685		29.74875780547013		10.288562768142294
C	14.818588752155803		21.871482221884644		29.43407806580764
C	14.901625292675147		22.352171546069723		27.99121716733091
H	14.416695887107508		20.854085804535117		29.49569629271834
H	15.803959842763131		21.875325785273333		29.91285990424327
H	15.289500566512535		23.377376389484606		27.986947461927095
H	13.88709335762941		22.400820245756663		27.579560434249668
C	14.0200004026994		22.650535941122843		30.481089025947803
O	13.937178892441768		22.111792704003037		31.622529063267464
O	13.528652548292966		23.749403526811793		30.092429339342246
C	27.245751883564175		20.180630328842813		10.822141878348031
C	27.89394891929577		19.67109825227907		12.10277552292458
H	26.901853900792894		19.354391779640522		10.19010217377407
H	26.384172764657777		20.821562330963946		11.039145561545965
H	28.236443123956693		20.532940790854397		12.687100422167898
H	28.789800168104485		19.098152581944667		11.837658929794454
C	28.00932812825883		21.09211289694649		9.859307081209323
O	27.412234623296847		21.376622009111713		8.781103506587552
O	29.15541798107304		21.46294187904059		10.245251315802035
C	23.256876293197802		31.78924666502658		20.316261132932855
C	24.198561666724753		31.05013931341504		21.257937216243448
H	23.036735467605947		31.19617259760901		19.42171581917591
H	22.30659235873241		32.02573477885014		20.80741978746024
H	24.401251182135127		31.691972471583885		22.12308320786435
H	25.157422933062854		30.901414306615308		20.748458116211935
C	23.614366475898656		33.17172814862629		19.766856257839404
O	22.808273857233804		33.65171670441089		18.918437308646343
O	24.677487526313996		33.685716672069816		20.220263874484882
C	20.983250706060378		29.19015048776994		28.366488157880692
C	20.335736589083332		27.894803939663582		27.894675001616072
H	21.899185663548074		28.996873783264494		28.935801270365836
H	21.240823106750973		29.837934809435836		27.52136394274641
H	19.41728980943799		28.142262342553135		27.34994545294219
H	20.03061843914652		27.315624536375793		28.773627299802005
C	20.211889637527065		30.189025657249463		29.23144509192331
O	20.874522295294256		31.182887068965353		29.64755384220679
O	18.994663496211253		29.91333590660171		29.437223417276584
C	24.348031948578683		16.733470774734965		28.935690363580132
C	25.110206060601698		17.650434407049833		27.988023129909024
H	23.670912687641614		17.300074144396365		29.584443227817648
H	23.751742359897097		15.997752271339191		28.384909083768417
H	25.784607677273744		17.038556891514506		27.377860205099232
H	25.745597033606664		18.317359672867127		28.581817715888327
C	25.08759758169987		15.799503244244622		29.895715012376105
O	24.360291385714426		15.154203803089692		30.704790636422654
O	26.34663696661253		15.77329834406583		29.776878286801136
C	21.094127583259848		19.339836985322265		32.24928346559423
C	21.48980702170304		18.516469597063633		31.030551012696787
H	21.446274829705136		20.37402966019369		32.16653094923797
H	20.00654595953353		19.362378207422296		32.37913381422321
H	21.132266654067255		17.4900009493272		31.17210464255137
H	22.583458687639457		18.462282818071092		30.984803491704767
C	21.51344491619206		18.916124779280903		33.65837570556796
O	21.21542543239747		19.722063173147124		34.586619601034634
O	22.11294534045642		17.805545617353413		33.7432415013828
C	25.332240126157153		20.24071832956941		30.997306547374876
C	24.199691406005122		21.25782797784057		31.0485532611789
H	25.04520645112303		19.348663223682387		30.429627493368752
H	26.22804648760831		20.664782875732833		30.530505485389313
H	24.530258315626046		22.11826320888892		31.641754037336888
H	23.354666211745496		20.81390081354221		31.587036411300144
C	25.950063671802877		19.681715616989486		32.28054854862563
O	26.81536701734516		18.772524774426145		32.123669076124294
O	25.5289633413927		20.188994470045365		33.36005385841838
C	14.563772788065963		12.522146541919355		16.252333364990825
C	14.891503887723497		12.015107825263728		17.650656979870256
H	14.034447605828378		13.480809963568424		16.28682171579576
H	15.471811916098785		12.65862141003842		15.654802980547256
H	15.40059089284585		11.048540361481052		17.560722622852047
H	13.952596048081455		11.824767234482858		18.182940304106424
C	13.739179756835467		11.677155979021272		15.279226340322273
O	13.443438855399641		12.233163952605032		14.182238879396122
O	13.442054437307377		10.513616359156199		15.67656893104163
C	11.575283883175782		23.676561250012043		24.491467967223027
C	12.016936684638663		22.35525021124786		25.1070041624219
H	12.433373719474126		24.313628449801257		24.250143773048027
H	11.003784135581693		23.516089558779473		23.570685754746673
H	11.123988794117013		21.76643847251972		25.346702369651073
H	12.518424713334074		22.562941584038978		26.059095050858154
C	10.615492254983465		24.610519085824453		25.231348221978173
O	10.391802479998091		25.72354940173396		24.673570992850465
O	10.149110668742251		24.16898614096533		26.321084846818856
