493     

Si	14.5366964035		14.5406029264		20.0119125987
Si	14.5358935115		14.5398291329		25.4679062594
Si	14.5387861885		20.0110707459		14.5382991027
Si	14.6325986156		20.0012461143		20.0010729132
Si	14.5444800001		19.996361116		25.4615379256
Si	14.538032773		25.4657516998		14.5368697569
Si	14.5419208987		25.4648197135		19.9903143685
Si	20.0086361402		14.5384956583		14.5373049666
Si	20.00035645		14.6305599231		19.999474222
Si	19.9921764287		14.5382716515		25.4619365757
Si	20.0007172689		20.0007068045		14.6293558636
Si	20.0023189441		20.0005374729		19.9992441023
Si	20.0044896511		20.0005652703		25.3694447625
Si	19.9924075618		25.4630935243		14.5375779503
Si	20.0036166249		25.3710542998		19.9994297065
Si	20.0159980334		25.4634431561		25.461765722
Si	25.4636385429		14.535753484		14.5337147741
Si	25.4631391142		14.5370711111		19.9882529377
Si	25.4627664809		19.9903152212		14.5360378415
Si	25.3722153293		19.999254971		19.9979907403
Si	25.4660180914		20.0082643342		25.4599536819
Si	25.4652058491		25.4616330918		20.0078129017
Si	25.4689038972		25.463369545		25.4622846794
Si	14.5878610401		11.8359148656		22.7547710855
Si	14.5093415953		17.2823032526		17.2819492168
Si	14.5741154822		17.2535996899		22.7524105007
Si	14.5929810551		17.2535649139		28.1699723221
Si	14.5910651558		22.754798124		11.8319129395
Si	14.5783953775		22.7485808603		17.2536215845
Si	14.5145431731		22.7235551975		22.7184951685
Si	14.593281288		28.1711391928		17.2476885774
Si	20.0837518823		11.8264049597		17.3530024051
Si	19.9147006274		11.8264932375		22.6458318555
Si	20.084359899		17.3546402319		11.8250004612
Si	19.9950166845		17.2707005726		17.2702444642
Si	20.0069722062		17.2706221256		22.7294416335
Si	19.9188608175		17.3540816281		28.173686271
Si	19.9160916116		22.6473480908		11.825476517
Si	20.0072228116		22.730219139		17.2698031733
Si	19.9987380916		22.7299898228		22.7289438841
Si	20.0908932879		22.646578486		28.1737678794
Si	19.9182355742		28.1752290537		17.3536403363
Si	20.0894318278		28.175029771		22.6462550123
Si	25.4095997998		11.8308856483		17.2447776373
Si	25.409416217		17.2470113727		11.829473611
Si	25.4252674743		17.2520973526		17.2504595454
Si	25.4930902562		17.2795102997		22.7172196118
Si	25.4925209523		22.7189288863		17.2787859322
Si	25.4277705797		22.7465484319		22.7454225347
Si	25.4154302621		22.7516505747		28.166786139
Si	25.4144207998		28.1682122974		22.7513829144
Si	11.826629811		17.3587102289		20.0874796316
Si	11.8301935667		17.2588183393		25.4159299524
Si	11.833197657		22.7553185454		14.5908424988
Si	11.8290406652		22.6503624812		19.9149714853
Si	17.3523114687		11.8276947211		20.0850436402
Si	17.2462619769		11.834411227		25.4103651852
Si	17.2804807274		17.2816567317		14.5092756458
Si	17.2699375465		17.2710703491		19.9966926391
Si	17.2552171484		17.2549819434		25.424772685
Si	17.2541542109		22.7486254197		14.5757973441
Si	17.2737282013		22.7311025228		20.0049559642
Si	17.287511424		22.7223700298		25.4902522384
Si	17.2494055209		28.1704026883		14.5905951042
Si	17.3574724039		28.175721926		19.9157037393
Si	22.7518831812		11.8316805313		14.5884358345
Si	22.6461280143		11.8256619408		19.913860951
Si	22.7472809831		17.2530239045		14.5745783294
Si	22.73104627		17.2700979195		20.0038182397
Si	22.7225225429		17.2798708727		25.4894116368
Si	22.7207562592		22.7197206933		14.5081707422
Si	22.7324276113		22.7295634941		19.9936213899
Si	22.7522677621		22.7471896722		25.4230784913
Si	22.6501351678		28.1745814163		20.0839919654
Si	22.7587367533		28.1689044465		25.4087868993
Si	28.1691825075		17.2464917005		14.5871563095
Si	28.1759104513		17.3525036689		19.9123632792
Si	28.1767552215		22.6452231083		20.082131922
Si	28.1729064182		22.7513878606		25.4072618507
Si	11.8280072892		14.5975341773		22.7571967778
Si	11.8275923275		20.0876869593		17.3544999146
Si	11.830643606		19.9225822294		22.646890279
Si	11.8345547832		25.4126449798		17.2472916324
Si	17.2796670609		14.510584725		17.2812699686
Si	17.2529718023		14.5773061188		22.7481791895
Si	17.2483271218		14.5932345471		28.1691488608
Si	17.3539815426		20.0861693366		11.8256834482
Si	17.2720088621		19.9959212071		17.2703456118
Si	17.2737593251		20.005982557		22.7288315862
Si	17.3591917519		19.9175633708		28.1743080736
Si	17.2484000424		25.4114474221		11.831702861
Si	17.2554685505		25.4258737062		17.2526290188
Si	17.2857067217		25.4925053799		22.719168206
Si	22.7517485761		14.5907125897		11.8299870913
Si	22.7474730198		14.5756295632		17.2512473563
Si	22.7206749419		14.5088220773		22.7180891092
Si	22.6464520052		19.9157718028		11.824746563
Si	22.7309300547		20.0050886767		17.2692025326
Si	22.7327044885		19.9944907648		22.7282762272
Si	22.6515776337		20.0841076016		28.1727468747
Si	22.7218892848		25.4909255271		17.2796177896
Si	22.7514494264		25.424208561		22.7461464535
Si	22.7594335635		25.4095480888		28.1681152868
Si	28.1693696069		14.5891530712		17.2440049445
Si	28.1755976878		19.9143706834		17.3509776494
Si	28.1771040443		20.0833871291		22.6435184883
Si	28.1725418273		25.4086999219		22.7504679083
Si	13.1421711989		15.9467054262		18.6915464342
Si	13.2222055074		15.8849943428		24.1280172972
Si	13.1876938852		21.3899098266		13.1872313446
Si	13.3082973689		21.364917367		18.6380649553
Si	13.1485249157		21.3175890112		24.0570673504
Si	13.1899399459		26.8159547241		18.6123997707
Si	19.1435533517		10.6033336888		19.1448212954
Si	18.1270488213		10.6009788915		23.5882992509
Si	18.6882270913		15.944340413		13.1421923003
Si	18.6220064606		15.9225323027		18.6232093408
Si	18.6399778317		15.9098631231		24.0915401692
Si	18.1318069391		16.4140839048		29.4019198963
Si	18.6376668781		21.3642620089		13.3055106571
Si	18.637627659		21.3655133716		18.6349299125
Si	18.6266529759		21.3778687412		24.0779047098
Si	19.1512244692		20.8554724502		29.3979963268
Si	18.6136609389		26.8147262965		13.1868747671
Si	18.63989876		26.6953535143		18.6369238081
Si	18.694062785		26.8582348334		24.0568690393
Si	23.5875505056		10.5985171944		18.1268631727
Si	24.119075687		15.8806324657		13.225113893
Si	24.0920393125		15.9085198636		18.6367567409
Si	24.0817912708		15.9196227767		24.0776163114
Si	24.0575101904		21.3115578006		13.1411595172
Si	24.0805437009		21.3770968431		18.6209656934
Si	24.09489567		21.3606593092		24.089482142
Si	23.5939035419		21.8703116857		29.400073728
Si	24.0596234875		26.8571730771		18.6875719609
Si	24.1243037597		26.7728109973		24.1181622963
Si	29.402696933		16.4107413592		18.1254476462
Si	29.4000280997		20.8537398882		19.1420362143
Si	29.404989659		21.8696896488		23.5850516772
Si	10.5984697344		16.4214577479		21.8756631175
Si	10.6003653645		21.8742118097		16.4127527018
Si	10.6049286325		20.8604174995		20.8557357166
Si	16.409339096		10.6024917232		21.8722557912
Si	15.9201085536		15.9221695635		15.921203076
Si	15.9074289452		15.9109676359		21.3646121533
Si	15.8817098056		15.8848997503		26.7747360971
Si	16.4124410718		21.8730215777		10.5986398816
Si	15.9105215634		21.3626444138		15.9090476693
Si	15.9250504818		21.3792588139		21.3772973017
Si	15.9503226671		21.3155645103		26.8575154119
Si	15.8827893361		26.7750948012		15.8809361068
Si	15.9476013757		26.8590217333		21.3118202534
Si	21.8701719658		10.5989966114		16.4104926307
Si	20.8541491202		10.6026402802		20.854154787
Si	21.8704593231		16.4126848677		10.597151264
Si	21.3612649532		15.9092319096		15.9081011137
Si	21.3787524525		15.9215820789		21.3766596861
Si	21.3141785876		15.9431114038		26.8564265362
Si	20.8551292759		20.8559149358		10.6013340928
Si	21.3789049267		21.3778371611		15.9205649175
Si	21.3677820614		21.3647163396		21.3636854702
Si	21.3684332404		21.3632354194		26.6933060834
Si	21.3135758919		26.857892104		15.9430127357
Si	21.3671513303		26.6947342073		21.3626822689
Si	21.3948632039		26.8139144492		26.8132274887
Si	26.7738922618		15.8797463666		15.8776122653
Si	26.8590989396		15.9421479993		21.3086535623
Si	26.8585728264		21.3108000941		15.9410751953
Si	26.6969709287		21.3621719959		21.3608650781
Si	26.8179211965		21.3864509628		26.8109014805
Si	26.8170784187		26.8125496918		21.3860726734
Si	10.6038042965		19.1496385305		19.1466411923
Si	10.6012680558		18.1395811413		23.59086599
Si	10.6007720907		23.5917166142		18.1288433115
Si	15.9414875691		13.1450725488		18.6900385231
Si	15.8790177672		13.2305738915		24.1213486779
Si	15.9436213142		18.6901285152		13.1427137803
Si	15.9230821703		18.6237783351		18.6228000936
Si	15.9116790836		18.6405361264		24.0909721402
Si	16.4162549579		18.1322739103		29.4025504211
Si	15.88182178		24.1212312229		13.2271763705
Si	15.9121249219		24.092717126		18.6386521864
Si	15.9262172445		24.0820230311		24.0794887318
Si	16.4153319985		29.4031799571		18.1295753756
Si	21.3868041173		13.187319588		13.1854894693
Si	21.3630498636		13.3061343213		18.6357817711
Si	21.3120251107		13.1426844271		24.0556750499
Si	21.3633133047		18.6374608268		13.3048248642
Si	21.3660112154		18.635383187		18.6343625442
Si	21.3807384772		18.6222763639		24.0775088905
Si	20.8603938129		19.144766825		29.3969410207
Si	21.3126599253		24.0574747288		13.142078386
Si	21.3801296634		24.0788172267		18.6217167457
Si	21.366052326		24.0910504247		24.0902792096
Si	21.8777336255		23.5877537776		29.4008831346
Si	20.8586122963		29.3985754613		19.1449144391
Si	21.8763513888		29.4019238331		23.5874992221
Si	26.8139699362		13.1858444839		18.6091484094
Si	26.8134917851		18.61165879		13.1843486397
Si	26.695782947		18.6359606675		18.6343736987
Si	26.8604305194		18.687291298		24.054074374
Si	26.8596691827		24.0559321119		18.6865478901
Si	26.7773846864		24.1185408442		24.1175253177
Si	13.1834702213		13.1932383414		21.3924861386
Si	13.1436142426		18.6906342826		15.9442061198
Si	13.3084344405		18.6395816644		21.3657488244
Si	13.1924398162		18.6218914745		26.8152241151
Si	13.2294412783		24.1209682341		15.8814597836
Si	13.146622098		24.0602576248		21.3109927254
Si	18.6873728555		13.1437867792		15.9432516198
Si	18.636579681		13.3071400046		21.3630691947
Si	18.6122798188		13.1887111862		26.8135683243
Si	19.1448981979		19.1462835244		10.6014560269
Si	18.6232886247		18.6232401079		15.921110389
Si	18.6378605305		18.6357373335		21.363848613
Si	18.6409651136		18.6381458665		26.6939967903
Si	18.1295367415		23.5895911546		10.5985947816
Si	18.6406232192		24.0921068632		15.9087348958
Si	18.6266095746		24.0795601588		21.3771131417
Si	18.6958322539		24.0585920739		26.857360751
Si	18.1316791122		29.4028628213		16.4123493405
Si	19.1492203097		29.398857521		20.8552758821
Si	24.1193391289		13.2266367739		15.8784184622
Si	24.057482272		13.142178821		21.3094385195
Si	23.5876416562		18.1291826336		10.5970535869
Si	24.0918784422		18.6385366612		15.9073616893
Si	24.0808278808		18.6218442653		21.3757386222
Si	24.0608572295		18.6875079771		26.8553513147
Si	24.0812850633		24.0794244714		15.9192342586
Si	24.0944450157		24.0906899977		21.3599605713
Si	24.1250724236		24.1189641293		26.7720043001
Si	23.592753857		29.4016055039		21.8702550884
Si	29.4025038654		18.1277753225		16.4087798567
Si	29.4002620787		19.1436376253		20.8518018381
Si	29.4047358688		23.5866948529		21.8683666767
C	18.51414448880113		8.969362985322883		18.517458383296606
H	17.65468432365625		9.104843958963244		17.853781445238187
H	18.198548954568647		8.323681865891277		19.34268481809015
C	19.59545468446289		8.224753003422478		17.731822185293858
O	19.526275126976262		8.32271665381291		16.472613565196248
O	20.44207507046962		7.591429376241381		18.426173783658832
C	31.008383568644177		24.274131862714903		21.223894479998528
H	30.961857620724828		24.440137456434762		20.143259746694106
H	31.839425062259718		23.5896451217325		21.419729245064744
C	31.34240296876477		25.612420523613224		21.88594772593427
O	31.05058863255536		26.64523172900197		21.216519280089525
O	31.874370704260883		25.54181262445624		23.031379474170617
C	21.4835955831423		21.483823267628946		8.967210098887353
H	22.455850572588655		21.045380838865682		8.72229701235084
H	21.603195954979004		22.57148818256052		8.980778510121244
C	20.51776882808547		21.136385774617327		7.83258863440407
O	20.819919198771593		20.118271763596525		7.145465609788123
O	19.52120795829299		21.904699040662642		7.70394107353623
C	17.65449914820042		27.988381309906398		25.106476769208754
H	17.143536334175458		27.433363457070065		25.899172255203624
H	16.889910142157703		28.492533936221413		24.50753011121801
C	18.51034361935354		29.067902024444713		25.772108249894067
O	18.83665132800849		28.84755419545245		26.974172786610275
O	18.799371304193542		30.064404080117193		25.048619696192937
C	17.646681115222467		12.013999177690483		14.894375708553348
H	18.048549446613716		11.934476244393975		13.87964821059898
H	16.618723670161042		12.381204313083892		14.817128070508563
C	17.593461343342078		10.603703849369303		15.48525195853845
O	18.382329471242787		9.76071717999335		14.968483549154842
O	16.76632924298431		10.432715830531905		16.426848805852526
C	30.90387892247808		19.019077264214342		15.767645091864997
H	31.81126007319708		18.427104662880993		15.921664033526385
H	31.04205391661584		19.978006594335056		16.27643338647216
C	30.781655992355454		19.301308881669968		14.268876640949173
O	31.384606116149705		18.49241365236545		13.505903054823886
O	30.090829978331072		20.3131231099718		13.954265098482669
C	18.756749087882476		15.821132842205197		31.05039080840092
H	19.75467546231429		15.381226948217074		30.96028141128891
H	18.094671666985857		15.059716282107225		31.47394910267392
C	18.84478459774406		16.971691472759517		32.05506219082424
O	19.99289413137082		17.47918764021963		32.21088637286487
O	17.759970869521307		17.291424400694815		32.62157703330709
C	23.585278146950156		26.43125175927111		29.484816594512537
H	22.887727141446817		27.15241890000031		29.92166267456104
H	24.431884435729962		26.992299358379192		29.07740193935941
C	24.113763785808047		25.55015239860745		30.6185126940732
O	23.380158239067892		25.477605961003512		31.646398365285258
O	25.22734014442351		24.98920567235227		30.405732289109977
C	21.487264570202875		31.032699389853452		18.517192124182188
H	21.838699698112233		30.951010439888265		17.484083120192327
H	22.32206719163289		31.395295039149637		19.124754710476843
C	20.38965302414136		32.098030919131006		18.552086632053616
O	19.799355734115295		32.31571392849127		17.454747917834645
O	20.190789134344218		32.6463003904678		19.674513813226106
C	13.568652084568587		23.58042876311156		10.515628183250278
H	13.709031439958421		23.09676404676296		9.544105653125648
H	13.842115974939947		24.63423352419427		10.405100611656682
C	12.077768829292221		23.519982315894623		10.854026389739909
O	11.419990349097935		22.605027200527616		10.279419006601614
O	11.663631481947808		24.391477620937106		11.671935448085298
C	16.358868515681024		10.681041523998767		26.568756817241876
H	15.273960586852416		10.754181904517159		26.445796585856087
H	16.591586165659496		10.91239703053827		27.612701472327743
C	16.758577517481687		9.226194261651312		26.314685651779055
O	15.955744941034457		8.550547171877458		25.60832179286835
O	17.848793028792183		8.855834696214256		26.83837732450955
C	21.482437866586373		8.968308363534195		21.481699556185205
H	22.374340830071578		9.099099120318089		22.102100095728986
H	21.747275687484162		8.302298910132235		20.654780180126494
C	20.425734643795302		8.258355735799114		22.33037238202271
O	20.555547401805104		8.377164557303328		23.5829785247071
O	19.536172988269755		7.629104895593138		21.68794536047184
C	21.24510752727558		15.820442119959086		8.94858107768476
H	21.687701254477723		14.856159888185415		8.680692074687437
H	21.49056299553395		16.531337928787437		8.15367096956413
C	19.725125329657473		15.646288125744427		8.963564576044805
O	19.308580192962406		14.464676259643095		9.13755475934323
O	19.04883306983762		16.70268668478962		8.800347234273165
C	26.618755057418383		10.664323307770466		16.446857924150812
H	27.650470086306406		10.988643819417225		16.61381376469485
H	26.458915011914723		10.6072174358163		15.365796687614353
C	26.478622998044184		9.249825387482026		17.012948587768594
O	27.31543579321408		8.929269638815239		17.905684492018345
O	25.541057999871676		8.553384866714763		16.527220770843094
C	10.863120965160176		16.21380701492017		26.61272647448256
H	10.740336920322914		16.723337574695847		27.573349519588227
H	11.3672641734816		15.261462093683859		26.803467383568126
C	9.467037874855102		15.900486523620113		26.070801872073957
O	8.530181496966048		16.627367315816457		26.511180661350437
O	9.400137884993047		14.948334441718075		25.24078991963829
C	17.648108403315334		14.895479668803734		12.01186303225944
H	18.248990612741924		14.119396880749187		11.527993189967006
H	17.187916151246235		15.499412753127086		11.223833059038082
C	16.52332795198256		14.200315719126976		12.781613653804786
O	16.7397130668585		12.996425135562458		13.103815425626125
O	15.498247747117007		14.904397053539585		13.01284748572511
C	14.901625292675147		22.352171546069723		27.99121716733091
H	14.389704337277012		23.146970347427487		27.44010397697477
H	15.508496463547827		22.824858923540766		28.769534161262797
C	13.83315840011149		21.504961537326857		28.685129049763596
O	12.678025325794444		21.54777448169322		28.171491366845434
O	14.220084729006489		20.853021208635326		29.697675770035513
C	23.821365730314028		29.287333999936962		26.44779363229499
H	24.8845685605409		29.11403934880948		26.255277000576644
H	23.645251715723468		29.121266747899906		27.514990352476257
C	23.529221111617797		30.759754559794754		26.151940262067605
O	24.33376135730824		31.33203923961411		25.361247986142
O	22.514634613410617		31.246111391521776		26.729919765846194
C	24.199691406005122		21.25782797784057		31.0485532611789
H	23.51078661003351		21.53668499632107		31.85176113784065
H	25.180538094733087		21.678276701608617		31.29076383442706
C	24.33205072531337		19.73359182350658		31.057781284444037
O	23.37141053941015		19.101261517524808		31.584391058626803
O	25.387854666518447		19.270026221505628		30.53780627804727
C	25.110206060601698		17.650434407049833		27.988023129909024
H	25.768427740735472		18.274942319526975		28.599764933985966
H	25.740671861211567		16.959012742911472		27.420614745655236
C	24.244724770214642		16.818630903060747		28.936677475148343
O	24.095585484605632		17.289969942864413		30.100973837740355
O	23.77159997825674		15.74924145376156		28.454444985717807
C	15.810302827453167		31.051805401969084		18.74241617443164
H	15.848284897697125		31.806404648428476		17.950815714993357
H	16.42121338312416		31.412722049571816		19.575501274738304
C	14.363206743472384		30.963157925426483		19.23124594912842
O	13.481211156066811		31.352373463080678		18.412353962389236
O	14.204768620928792		30.510206590323964		20.401596958977052
C	26.545752013210073		13.48990885636962		13.440627653953506
H	27.543087174118952		13.927856167779543		13.335657767587543
H	26.118363320099363		13.39191930294632		12.438010942382718
C	26.71440506377243		12.081416414742575		14.013868607144653
O	27.784210365935653		11.873348628179974		14.655907117327951
O	25.765857998040975		11.276805753274187		13.7839791022871
C	23.391939168525475		10.65647747174686		13.296605310822166
H	24.404588117553047		10.318099678187565		13.536473029907699
H	23.42462582748155		11.131249523499323		12.311198593217172
C	22.501494301177704		9.41718592706846		13.186312947067316
O	22.909653914116756		8.390121902806165		13.80156432441773
O	21.453122288318887		9.553223630541194		12.49176352277253
C	13.542767096918283		29.289914486595418		16.196802391208127
H	12.67691908803997		29.659017593889626		16.75498163617091
H	13.169124199538462		28.765671899380497		15.31189334905305
C	14.338427804784638		30.50506533925193		15.715936044656662
O	14.169630738173465		31.56990463151759		16.377459943582945
O	15.07928931916137		30.313895683559		14.708678671311764
C	22.35188495172223		12.011876372473786		25.104276334765558
H	21.88336532533758		11.831957517907924		26.07670243132205
H	23.342106151364803		12.440570523162		25.286448283331023
C	22.550312475517448		10.655069605690308		24.425599743588982
O	21.788702516580205		9.725727981385738		24.82090146719078
O	23.454587933327694		10.608893768731804		23.542342858315365
C	18.523692459966405		21.483376440470483		31.032481002895086
H	18.121480666925766		20.668043512756487		31.641539159662035
H	17.7260091830249		22.219541662515272		30.893680882435454
C	19.641399295267203		22.15433657542097		31.83338294922129
O	20.182159575227722		21.440973395320885		32.72707211766551
O	19.90424831406766		23.35010693646938		31.51552657622588
C	12.007208630399756		14.898232138976814		17.656093038781965
H	11.901136735195958		13.89422423307549		18.078243279496704
H	12.388219899448735		14.791461273343922		16.635831448301516
C	10.610112579910071		15.51575769555374		17.56842997540587
O	9.745060075606272		15.033059214690326		18.35498917741795
O	10.470680417951991		16.442444943251715		16.718842749709978
C	17.657356748679867		25.108041975467618		27.98865360837934
H	16.626378814165296		25.177433352260444		27.6284268975834
H	18.054052344636236		26.12544624360261		28.05953715533854
C	17.617591965583358		24.524934201355197		29.402621106518865
O	16.59092862077957		23.843302710936108		29.68780512536521
O	18.615665211042383		24.787322635673227		30.13405199398194
C	29.322887340934642		13.431171547159417		16.356268707068953
H	29.416382519489837		13.699002167970647		15.29937734181763
H	28.963673492774365		12.39875918297884		16.407194530350974
C	30.723647903965883		13.466932650210959		16.970671659995556
O	31.56983455021161		14.189468365956978		16.36909096209477
O	30.88458063664623		12.770108466360895		18.01399603393385
C	27.992617512443715		14.892703990769602		22.344705162355712
H	28.722821105493264		15.507920024974531		22.879313328917625
H	28.547206498745247		14.180133973059998		21.726499416641254
C	27.207682832329326		14.09242274833264		23.38601562564573
O	27.186595668915306		14.57999824120888		24.552983708836372
O	26.66441735161718		13.029460733933288		22.96772934770839
C	8.952454777141835		24.184493332582967		18.754355738209107
H	9.067169107885332		24.792736569918286		19.656782873416113
H	8.297211964604514		23.34352499308148		19.001200682403407
C	8.237447510332135		25.038784058304913		17.7056174656383
O	8.336154990976983		26.290856008564493		17.855822996621406
O	7.624663824601444		24.400930389040866		16.801389680172328
C	26.625792188602496		23.548700037595836		29.33269186442149
H	26.20739312044812		23.633516359121963		30.340284222059406
H	26.89332136441475		24.555582070132672		28.99784857190437
C	27.91670567960393		22.73352813453218		29.43237700476884
O	28.008794820515064		21.96981708833751		30.436495556009923
O	28.752758026693588		22.91114656618688		28.4999301148269
C	25.106774415792017		22.34798755842385		12.007820228897648
H	24.737683924526355		22.30615339207834		10.978492263872191
H	26.144927286199618		22.00198121642408		12.003178369313408
C	25.107559756918274		23.815020330958227		12.442232737407025
O	24.31741664195439		24.575666655348762		11.812089845702022
O	25.898267516753087		24.109141804671427		13.384709704837944
C	16.360733959052194		13.43575503080084		29.32328037271327
H	16.509780870470518		12.39232598653524		29.029112401003847
H	15.2837435000645		13.629611481745838		29.327094239056713
C	16.8661597779801		13.590813961951678		30.759038524155017
O	17.716728008687397		12.734794415882098		31.138186593592646
O	16.37898280077179		14.558317839147515		31.412172413483383
C	19.67291038436394		27.88122960120417		12.091356025434925
H	20.65120562117959		27.42229266903973		11.918702413485125
H	19.841583545854643		28.864868090468804		12.540252455505286
C	19.014402088599653		28.099235709256217		10.727633120566928
O	19.42946994608085		27.35678081658169		9.791434187150731
O	18.125879678391296		28.9984327189906		10.683342025047832
C	27.99294681221769		25.104767259257663		17.64961652877371
H	27.53552783714582		26.071463980659743		17.417756058070594
H	28.229780201010822		24.612900457387767		16.70120716933495
C	29.31255365057793		25.37671435461326		18.374587265755924
O	29.400602378611545		26.49726437384821		18.95476319836965
O	30.173276364681442		24.451688964642994		18.31565107791992
C	14.898603654701134		27.98892619341846		22.3522623192276
H	14.870469832007332		28.999604571323495		21.93365552012386
H	15.287781126234039		28.06220838090175		23.37239659203139
C	13.457823872412906		27.48155483884455		22.439600326459978
O	12.63212153100671		28.032763238488606		21.655780206497393
O	13.247633800937834		26.56555638371978		23.286214761112696
C	8.951536551401952		21.262108524431454		15.807531161154646
H	9.05378822734616		20.312550464130855		15.27332330583542
H	8.489617982518046		21.9805041988759		15.123395057327524
C	7.983202216749301		21.039160908854083		16.970941225165255
O	7.870958671406322		19.84476956424501		17.371964590259815
O	7.399232362424761		22.073257289384905		17.406386884132285
C	8.952603334769075		18.75522647372468		24.192933645908973
H	9.069778695507916		19.428926316212234		25.047271052832002
H	8.311904769194253		17.926158109096477		24.508614359198656
C	8.213510192744772		19.52176537524678		23.0942710772074
O	8.296896502925351		20.782603989463226		23.151905694194287
O	7.598730405471113		18.81205320105019		22.24671961572739
C	19.670657217226122		12.106710953046266		27.894638524590444
H	19.94137019420795		11.178786615467846		27.381642563959865
H	19.14750270095687		11.836359965978684		28.816984996258583
C	20.967960862280385		12.816653199178603		28.28692064205885
O	21.989232697498522		12.512339806465487		27.605461740506005
O	20.879424910529888		13.631401146424672		29.250422694265254
C	22.353640460836857		27.987976567673165		14.893834582378684
H	22.554137216652702		27.544667238448472		13.913644887814579
H	23.31757443866803		28.19350751423085		15.36932552266007
C	21.6536112405584		29.328772058922215		14.663342627198995
O	21.051747210124805		29.452099381251184		13.55765772753843
O	21.752167987674927		30.16945040469364		15.603308330535466
C	31.037012567746547		18.51665059137092		21.474325007058955
H	31.50343635031785		17.84158571229966		20.750287568871954
H	30.91903296145225		17.9671520121787		22.413279447841028
C	32.010251971446564		19.669337919266887		21.729309295189967
O	32.85437028609412		19.889317667506532		20.81330590101448
O	31.865873704933772		20.278117758072135		22.828641392839724
C	12.106865945683975		20.330657526558053		12.105845414407922
H	12.696491162315494		19.812949464450103		11.343077812748895
H	11.351642907255393		20.932249409183303		11.590841834919289
C	11.373997012081318		19.268245319755717		12.92748002236787
O	11.89051529798169		18.113631413697636		12.919441044333396
O	10.33056033289973		19.659005680734822		13.52625817304304
