395     

Si	14.5366964035		14.5406029264		20.0119125987
Si	14.5358935115		14.5398291329		25.4679062594
Si	14.5387861885		20.0110707459		14.5382991027
Si	14.6325986156		20.0012461143		20.0010729132
Si	14.5444800001		19.996361116		25.4615379256
Si	14.538032773		25.4657516998		14.5368697569
Si	14.5419208987		25.4648197135		19.9903143685
Si	20.0086361402		14.5384956583		14.5373049666
Si	20.00035645		14.6305599231		19.999474222
Si	19.9921764287		14.5382716515		25.4619365757
Si	20.0007172689		20.0007068045		14.6293558636
Si	20.0023189441		20.0005374729		19.9992441023
Si	20.0044896511		20.0005652703		25.3694447625
Si	19.9924075618		25.4630935243		14.5375779503
Si	20.0036166249		25.3710542998		19.9994297065
Si	20.0159980334		25.4634431561		25.461765722
Si	25.4636385429		14.535753484		14.5337147741
Si	25.4631391142		14.5370711111		19.9882529377
Si	25.4627664809		19.9903152212		14.5360378415
Si	25.3722153293		19.999254971		19.9979907403
Si	25.4660180914		20.0082643342		25.4599536819
Si	25.4652058491		25.4616330918		20.0078129017
Si	25.4689038972		25.463369545		25.4622846794
Si	14.5878610401		11.8359148656		22.7547710855
Si	14.5093415953		17.2823032526		17.2819492168
Si	14.5741154822		17.2535996899		22.7524105007
Si	14.5929810551		17.2535649139		28.1699723221
Si	14.5910651558		22.754798124		11.8319129395
Si	14.5783953775		22.7485808603		17.2536215845
Si	14.5145431731		22.7235551975		22.7184951685
Si	14.593281288		28.1711391928		17.2476885774
Si	20.0837518823		11.8264049597		17.3530024051
Si	19.9147006274		11.8264932375		22.6458318555
Si	20.084359899		17.3546402319		11.8250004612
Si	19.9950166845		17.2707005726		17.2702444642
Si	20.0069722062		17.2706221256		22.7294416335
Si	19.9188608175		17.3540816281		28.173686271
Si	19.9160916116		22.6473480908		11.825476517
Si	20.0072228116		22.730219139		17.2698031733
Si	19.9987380916		22.7299898228		22.7289438841
Si	20.0908932879		22.646578486		28.1737678794
Si	19.9182355742		28.1752290537		17.3536403363
Si	20.0894318278		28.175029771		22.6462550123
Si	25.4095997998		11.8308856483		17.2447776373
Si	25.409416217		17.2470113727		11.829473611
Si	25.4252674743		17.2520973526		17.2504595454
Si	25.4930902562		17.2795102997		22.7172196118
Si	25.4925209523		22.7189288863		17.2787859322
Si	25.4277705797		22.7465484319		22.7454225347
Si	25.4154302621		22.7516505747		28.166786139
Si	25.4144207998		28.1682122974		22.7513829144
Si	11.826629811		17.3587102289		20.0874796316
Si	11.8301935667		17.2588183393		25.4159299524
Si	11.833197657		22.7553185454		14.5908424988
Si	11.8290406652		22.6503624812		19.9149714853
Si	17.3523114687		11.8276947211		20.0850436402
Si	17.2462619769		11.834411227		25.4103651852
Si	17.2804807274		17.2816567317		14.5092756458
Si	17.2699375465		17.2710703491		19.9966926391
Si	17.2552171484		17.2549819434		25.424772685
Si	17.2541542109		22.7486254197		14.5757973441
Si	17.2737282013		22.7311025228		20.0049559642
Si	17.287511424		22.7223700298		25.4902522384
Si	17.2494055209		28.1704026883		14.5905951042
Si	17.3574724039		28.175721926		19.9157037393
Si	22.7518831812		11.8316805313		14.5884358345
Si	22.6461280143		11.8256619408		19.913860951
Si	22.7472809831		17.2530239045		14.5745783294
Si	22.73104627		17.2700979195		20.0038182397
Si	22.7225225429		17.2798708727		25.4894116368
Si	22.7207562592		22.7197206933		14.5081707422
Si	22.7324276113		22.7295634941		19.9936213899
Si	22.7522677621		22.7471896722		25.4230784913
Si	22.6501351678		28.1745814163		20.0839919654
Si	22.7587367533		28.1689044465		25.4087868993
Si	28.1691825075		17.2464917005		14.5871563095
Si	28.1759104513		17.3525036689		19.9123632792
Si	28.1767552215		22.6452231083		20.082131922
Si	28.1729064182		22.7513878606		25.4072618507
Si	11.8280072892		14.5975341773		22.7571967778
Si	11.8275923275		20.0876869593		17.3544999146
Si	11.830643606		19.9225822294		22.646890279
Si	11.8345547832		25.4126449798		17.2472916324
Si	17.2796670609		14.510584725		17.2812699686
Si	17.2529718023		14.5773061188		22.7481791895
Si	17.2483271218		14.5932345471		28.1691488608
Si	17.3539815426		20.0861693366		11.8256834482
Si	17.2720088621		19.9959212071		17.2703456118
Si	17.2737593251		20.005982557		22.7288315862
Si	17.3591917519		19.9175633708		28.1743080736
Si	17.2484000424		25.4114474221		11.831702861
Si	17.2554685505		25.4258737062		17.2526290188
Si	17.2857067217		25.4925053799		22.719168206
Si	22.7517485761		14.5907125897		11.8299870913
Si	22.7474730198		14.5756295632		17.2512473563
Si	22.7206749419		14.5088220773		22.7180891092
Si	22.6464520052		19.9157718028		11.824746563
Si	22.7309300547		20.0050886767		17.2692025326
Si	22.7327044885		19.9944907648		22.7282762272
Si	22.6515776337		20.0841076016		28.1727468747
Si	22.7218892848		25.4909255271		17.2796177896
Si	22.7514494264		25.424208561		22.7461464535
Si	22.7594335635		25.4095480888		28.1681152868
Si	28.1693696069		14.5891530712		17.2440049445
Si	28.1755976878		19.9143706834		17.3509776494
Si	28.1771040443		20.0833871291		22.6435184883
Si	28.1725418273		25.4086999219		22.7504679083
Si	13.1421711989		15.9467054262		18.6915464342
Si	13.2222055074		15.8849943428		24.1280172972
Si	13.1876938852		21.3899098266		13.1872313446
Si	13.3082973689		21.364917367		18.6380649553
Si	13.1485249157		21.3175890112		24.0570673504
Si	13.1899399459		26.8159547241		18.6123997707
Si	19.1435533517		10.6033336888		19.1448212954
Si	18.1270488213		10.6009788915		23.5882992509
Si	18.6882270913		15.944340413		13.1421923003
Si	18.6220064606		15.9225323027		18.6232093408
Si	18.6399778317		15.9098631231		24.0915401692
Si	18.1318069391		16.4140839048		29.4019198963
Si	18.6376668781		21.3642620089		13.3055106571
Si	18.637627659		21.3655133716		18.6349299125
Si	18.6266529759		21.3778687412		24.0779047098
Si	19.1512244692		20.8554724502		29.3979963268
Si	18.6136609389		26.8147262965		13.1868747671
Si	18.63989876		26.6953535143		18.6369238081
Si	18.694062785		26.8582348334		24.0568690393
Si	23.5875505056		10.5985171944		18.1268631727
Si	24.119075687		15.8806324657		13.225113893
Si	24.0920393125		15.9085198636		18.6367567409
Si	24.0817912708		15.9196227767		24.0776163114
Si	24.0575101904		21.3115578006		13.1411595172
Si	24.0805437009		21.3770968431		18.6209656934
Si	24.09489567		21.3606593092		24.089482142
Si	23.5939035419		21.8703116857		29.400073728
Si	24.0596234875		26.8571730771		18.6875719609
Si	24.1243037597		26.7728109973		24.1181622963
Si	29.402696933		16.4107413592		18.1254476462
Si	29.4000280997		20.8537398882		19.1420362143
Si	29.404989659		21.8696896488		23.5850516772
Si	10.5984697344		16.4214577479		21.8756631175
Si	10.6003653645		21.8742118097		16.4127527018
Si	10.6049286325		20.8604174995		20.8557357166
Si	16.409339096		10.6024917232		21.8722557912
Si	15.9201085536		15.9221695635		15.921203076
Si	15.9074289452		15.9109676359		21.3646121533
Si	15.8817098056		15.8848997503		26.7747360971
Si	16.4124410718		21.8730215777		10.5986398816
Si	15.9105215634		21.3626444138		15.9090476693
Si	15.9250504818		21.3792588139		21.3772973017
Si	15.9503226671		21.3155645103		26.8575154119
Si	15.8827893361		26.7750948012		15.8809361068
Si	15.9476013757		26.8590217333		21.3118202534
Si	21.8701719658		10.5989966114		16.4104926307
Si	20.8541491202		10.6026402802		20.854154787
Si	21.8704593231		16.4126848677		10.597151264
Si	21.3612649532		15.9092319096		15.9081011137
Si	21.3787524525		15.9215820789		21.3766596861
Si	21.3141785876		15.9431114038		26.8564265362
Si	20.8551292759		20.8559149358		10.6013340928
Si	21.3789049267		21.3778371611		15.9205649175
Si	21.3677820614		21.3647163396		21.3636854702
Si	21.3684332404		21.3632354194		26.6933060834
Si	21.3135758919		26.857892104		15.9430127357
Si	21.3671513303		26.6947342073		21.3626822689
Si	21.3948632039		26.8139144492		26.8132274887
Si	26.7738922618		15.8797463666		15.8776122653
Si	26.8590989396		15.9421479993		21.3086535623
Si	26.8585728264		21.3108000941		15.9410751953
Si	26.6969709287		21.3621719959		21.3608650781
Si	26.8179211965		21.3864509628		26.8109014805
Si	26.8170784187		26.8125496918		21.3860726734
Si	10.6038042965		19.1496385305		19.1466411923
Si	10.6012680558		18.1395811413		23.59086599
Si	10.6007720907		23.5917166142		18.1288433115
Si	15.9414875691		13.1450725488		18.6900385231
Si	15.8790177672		13.2305738915		24.1213486779
Si	15.9436213142		18.6901285152		13.1427137803
Si	15.9230821703		18.6237783351		18.6228000936
Si	15.9116790836		18.6405361264		24.0909721402
Si	16.4162549579		18.1322739103		29.4025504211
Si	15.88182178		24.1212312229		13.2271763705
Si	15.9121249219		24.092717126		18.6386521864
Si	15.9262172445		24.0820230311		24.0794887318
Si	16.4153319985		29.4031799571		18.1295753756
Si	21.3868041173		13.187319588		13.1854894693
Si	21.3630498636		13.3061343213		18.6357817711
Si	21.3120251107		13.1426844271		24.0556750499
Si	21.3633133047		18.6374608268		13.3048248642
Si	21.3660112154		18.635383187		18.6343625442
Si	21.3807384772		18.6222763639		24.0775088905
Si	20.8603938129		19.144766825		29.3969410207
Si	21.3126599253		24.0574747288		13.142078386
Si	21.3801296634		24.0788172267		18.6217167457
Si	21.366052326		24.0910504247		24.0902792096
Si	21.8777336255		23.5877537776		29.4008831346
Si	20.8586122963		29.3985754613		19.1449144391
Si	21.8763513888		29.4019238331		23.5874992221
Si	26.8139699362		13.1858444839		18.6091484094
Si	26.8134917851		18.61165879		13.1843486397
Si	26.695782947		18.6359606675		18.6343736987
Si	26.8604305194		18.687291298		24.054074374
Si	26.8596691827		24.0559321119		18.6865478901
Si	26.7773846864		24.1185408442		24.1175253177
Si	13.1834702213		13.1932383414		21.3924861386
Si	13.1436142426		18.6906342826		15.9442061198
Si	13.3084344405		18.6395816644		21.3657488244
Si	13.1924398162		18.6218914745		26.8152241151
Si	13.2294412783		24.1209682341		15.8814597836
Si	13.146622098		24.0602576248		21.3109927254
Si	18.6873728555		13.1437867792		15.9432516198
Si	18.636579681		13.3071400046		21.3630691947
Si	18.6122798188		13.1887111862		26.8135683243
Si	19.1448981979		19.1462835244		10.6014560269
Si	18.6232886247		18.6232401079		15.921110389
Si	18.6378605305		18.6357373335		21.363848613
Si	18.6409651136		18.6381458665		26.6939967903
Si	18.1295367415		23.5895911546		10.5985947816
Si	18.6406232192		24.0921068632		15.9087348958
Si	18.6266095746		24.0795601588		21.3771131417
Si	18.6958322539		24.0585920739		26.857360751
Si	18.1316791122		29.4028628213		16.4123493405
Si	19.1492203097		29.398857521		20.8552758821
Si	24.1193391289		13.2266367739		15.8784184622
Si	24.057482272		13.142178821		21.3094385195
Si	23.5876416562		18.1291826336		10.5970535869
Si	24.0918784422		18.6385366612		15.9073616893
Si	24.0808278808		18.6218442653		21.3757386222
Si	24.0608572295		18.6875079771		26.8553513147
Si	24.0812850633		24.0794244714		15.9192342586
Si	24.0944450157		24.0906899977		21.3599605713
Si	24.1250724236		24.1189641293		26.7720043001
Si	23.592753857		29.4016055039		21.8702550884
Si	29.4025038654		18.1277753225		16.4087798567
Si	29.4002620787		19.1436376253		20.8518018381
Si	29.4047358688		23.5866948529		21.8683666767
C	26.545752013210073		13.48990885636962		13.440627653953506
H	27.570841565249882		13.872139691208327		13.416441976428738
H	26.17218084938325		13.474605580386887		12.412175558228444
Na	26.62569393155942		11.372597474800209		14.167402586905418
C	10.863120965160176		16.21380701492017		26.61272647448256
H	10.740336920322914		16.723337574695847		27.573349519588227
H	11.3672641734816		15.261462093683859		26.803467383568126
Na	8.819182323144902		15.755089432886102		25.819320520629443
C	27.992617512443715		14.892703990769602		22.344705162355712
H	28.722821105493264		15.507920024974531		22.879313328917625
H	28.547206498745247		14.180133973059998		21.726499416641254
Na	26.84343209842003		13.721050407071042		23.86923812821822
C	18.51414448880113		8.969362985322883		18.517458383296606
H	17.65468432365625		9.104843958963244		17.853781445238187
H	18.198548954568647		8.323681865891277		19.34268481809015
Na	20.097239154345143		7.879215037965428		17.367245910403696
C	8.952454777141835		24.184493332582967		18.754355738209107
H	9.067169107885332		24.792736569918286		19.656782873416113
H	8.297211964604514		23.34352499308148		19.001200682403407
Na	7.905646752531556		25.43521962383601		17.218948071177337
C	23.391939168525475		10.656477471746859		13.296605310822166
H	24.25120166341663		10.089809610236609		13.668155371251213
H	23.710686934345805		11.192379181450265		12.3973208523656
Na	21.816705290996143		9.184265450552775		12.689291556873243
C	19.67291038436394		27.88122960120417		12.091356025434925
H	20.65120562117959		27.42229266903973		11.918702413485125
H	19.841583545854643		28.864868090468804		12.540252455505286
Na	18.708819807558708		28.200401942404554		10.094794386935373
C	25.106774415792017		22.34798755842385		12.007820228897648
H	24.737683924526355		22.30615339207834		10.978492263872191
H	26.144927286199618		22.00198121642408		12.003178369313408
Na	25.107924196264445		24.495800245010127		12.643822855734905
C	15.810302827453167		31.051805401969084		18.74241617443164
H	15.848284897697125		31.806404648428476		17.950815714993357
H	16.42121338312416		31.412722049571816		19.575501274738304
Na	13.691678495350583		30.922020861148543		19.458088524314512
C	26.625792188602496		23.548700037595836		29.33269186442149
H	27.14149131855064		22.799268497258925		29.940886505567708
H	26.121614996373935		24.240549938520292		30.014346022574543
Na	28.183326522637685		24.70779312763682		28.215467622417762
C	21.482437866586373		8.968308363534195		21.481699556185205
H	22.374340830071578		9.099099120318089		22.102100095728986
H	21.747275687484162		8.302298910132235		20.654780180126494
Na	19.935369095964152		7.928900594824011		22.72420094826103
C	12.007208630399756		14.898232138976814		17.656093038781965
H	11.901136735195958		13.89422423307549		18.078243279496704
H	12.388219899448735		14.791461273343922		16.635831448301516
Na	9.961786961708974		15.802321842723423		17.527749730309775
C	17.646681115222467		12.013999177690483		14.89437570855335
H	18.269501169844798		11.315856741679452		14.326761168217372
H	17.045555659049167		12.581771707510716		14.177587135665934
Na	16.242773193159504		10.805002422541595		16.153331383868533
C	17.657356748679867		25.108041975467618		27.98865360837934
H	16.626378814165296		25.177433352260444		27.6284268975834
H	18.054052344636236		26.12544624360261		28.05953715533854
Na	17.599139027022233		24.25434170487166		30.058775958596684
C	22.353640460836857		27.987976567673165		14.893834582378684
H	22.554137216652702		27.544667238448472		13.913644887814579
H	23.31757443866803		28.19350751423085		15.36932552266007
Na	21.32876107951415		29.950971273815565		14.556382308128683
C	12.106865945683975		20.330657526558053		12.105845414407922
H	12.696491162315494		19.812949464450103		11.343077812748895
H	11.351642907255393		20.932249409183303		11.590841834919289
Na	11.033907506945447		18.775230504834372		13.308761441747977
C	17.65449914820042		27.988381309906398		25.106476769208754
H	17.143536334175458		27.433363457070065		25.899172255203624
H	16.889910142157703		28.492533936221413		24.50753011121801
Na	18.907500204006297		29.56885608151805		26.08099606119248
C	29.322887340934642		13.431171547159417		16.356268707068953
H	29.416382519489837		13.699002167970647		15.29937734181763
H	28.963673492774365		12.39875918297884		16.407194530350974
Na	31.37367404759476		13.48352767188847		17.2557867557981
C	16.360733959052194		13.43575503080084		29.32328037271327
H	16.806526116063434		12.436605848643588		29.301734785189122
H	15.306088647694938		13.335342621389685		29.04915643510766
Na	16.44753226120566		14.17448551796879		31.43617964198095
C	23.821365730314028		29.287333999936962		26.44779363229499
H	24.8845685605409		29.11403934880948		26.255277000576644
H	23.645251715723468		29.121266747899906		27.514990352476257
Na	23.393650733007128		31.443034688879088		26.014648828824832
C	16.358868515681024		10.681041523998767		26.568756817241876
H	15.273960586852416		10.754181904517159		26.445796585856087
H	16.591586165659496		10.91239703053827		27.612701472327743
Na	16.94406339413428		8.551069061477005		26.196783346237485
C	13.568652084568587		23.58042876311156		10.515628183250278
H	13.630019773806012		23.03682585019547		9.567881472579753
H	13.909216647262266		24.60446066112935		10.334305905580525
Na	11.410304145622902		23.675568179857404		11.107306022813477
C	30.90387892247808		19.019077264214342		15.767645091864997
H	31.81126007319708		18.427104662880993		15.921664033526385
H	31.04205391661584		19.978006594335056		16.27643338647216
Na	30.72493816203711		19.432279109378136		13.573369712746405
C	21.4835955831423		21.483823267628946		8.967210098887353
H	22.455850572588655		21.045380838865682		8.72229701235084
H	21.603195954979004		22.57148818256052		8.980778510121244
Na	20.069574712993735		20.975156611193636		7.306064948271303
C	17.648108403315334		14.895479668803734		12.01186303225944
H	18.10668582680536		13.915478330003232		11.848161870337865
H	17.52274559753297		15.371426336287666		11.034487846091245
Na	15.60728424414911		14.557123619935789		12.871020721835658
C	21.24510752727558		15.820442119959086		8.94858107768476
H	21.52337654606382		14.777041788831795		8.7714482179831
H	21.658482134413944		16.418338886140685		8.130568725050162
Na	19.012420189059398		15.958729179327499		8.832030921183934
C	8.951536551401952		21.262108524431454		15.807531161154646
H	9.05378822734616		20.312550464130855		15.27332330583542
H	8.489617982518046		21.9805041988759		15.123395057327524
Na	7.533844453609834		20.93570155783452		17.51082432676495
C	14.901625292675147		22.352171546069723		27.99121716733091
H	14.312120436976969		23.081929962495487		27.42780734618468
H	15.518891594062467		22.904336957375282		28.706478650726584
Na	13.47486827758209		21.082260000878527		29.161383432129576
C	24.199691406005122		21.25782797784057		31.0485532611789
H	23.51078661003351		21.53668499632107		31.85176113784065
H	25.180538094733087		21.678276701608617		31.29076383442706
Na	24.39347237022112		19.02626654927316		31.06206356975008
C	23.585278146950156		26.43125175927111		29.484816594512537
H	23.878332251494733		25.813551318047494		30.33925173220394
H	22.917113037810985		27.21500486791426		29.854667604408732
Na	25.431932943166075		27.42604403376146		28.698779448935397
C	31.008383568644177		24.274131862714903		21.223894479998528
H	30.961857620724828		24.440137456434762		20.143259746694106
H	31.839425062259718		23.5896451217325		21.419729245064744
Na	31.497405435487398		26.23345643814774		22.19317504921164
C	27.99294681221769		25.104767259257663		17.64961652877371
H	28.1195702529603		26.100513883344995		18.08544804745172
H	27.59766738538743		25.23266748564273		16.637243561574667
Na	30.023305096180128		24.174810027476717		17.475189507348095
C	31.037012567746547		18.51665059137092		21.474325007058955
H	31.50343635031785		17.84158571229966		20.750287568871954
H	30.91903296145225		17.9671520121787		22.413279447841028
Na	32.46188594309821		20.20424511064345		21.847635337394554
C	13.542767096918283		29.289914486595418		16.196802391208127
H	12.67691908803997		29.659017593889626		16.75498163617091
H	13.169124199538462		28.765671899380497		15.31189334905305
Na	14.707655976408894		31.06895887218404		15.492788916518398
C	14.898603654701134		27.98892619341846		22.3522623192276
H	14.870469832007332		28.999604571323495		21.93365552012386
H	15.287781126234039		28.06220838090175		23.37239659203139
Na	12.789226718540592		27.2461080011011		22.480129728508988
C	22.35188495172223		12.011876372473786		25.104276334765558
H	21.72729316567811		11.365258238900813		25.7281866151271
H	23.008786144616316		12.581382885055191		25.768841209553333
Na	23.64416222139122		10.692527901398936		23.83662532988712
C	8.952603334769075		18.75522647372468		24.192933645908973
H	8.943421329226103		19.846458303512648		24.274313816907885
H	8.713696329119156		18.346155955885752		25.17938591134627
Na	7.306732826555545		18.1630812164341		22.793621577619266
C	19.670657217226122		12.106710953046266		27.894638524590444
H	20.18690668301406		11.342712946955713		27.305327500119212
H	19.06879973935031		11.593197375800397		28.650664119533573
Na	21.22847071122816		13.308293140522132		28.965627490287986
C	21.487264570202875		31.032699389853452		18.517192124182188
H	21.838699698112233		30.951010439888265		17.484083120192327
H	22.32206719163289		31.395295039149637		19.124754710476843
Na	19.880303875315427		32.59240045232517		18.56827950825539
C	25.110206060601694		17.650434407049833		27.988023129909024
H	24.562006318983073		17.37617758695495		28.894529714397365
H	26.012230514329005		18.188658056609768		28.294895262616336
Na	25.75674885067474		15.755352137342063		26.983908787991822
