615     

Si	14.5366964035		14.5406029264		20.0119125987
Si	14.5358935115		14.5398291329		25.4679062594
Si	14.5387861885		20.0110707459		14.5382991027
Si	14.6325986156		20.0012461143		20.0010729132
Si	14.5444800001		19.996361116		25.4615379256
Si	14.538032773		25.4657516998		14.5368697569
Si	14.5419208987		25.4648197135		19.9903143685
Si	20.0086361402		14.5384956583		14.5373049666
Si	20.00035645		14.6305599231		19.999474222
Si	19.9921764287		14.5382716515		25.4619365757
Si	20.0007172689		20.0007068045		14.6293558636
Si	20.0023189441		20.0005374729		19.9992441023
Si	20.0044896511		20.0005652703		25.3694447625
Si	19.9924075618		25.4630935243		14.5375779503
Si	20.0036166249		25.3710542998		19.9994297065
Si	20.0159980334		25.4634431561		25.461765722
Si	25.4636385429		14.535753484		14.5337147741
Si	25.4631391142		14.5370711111		19.9882529377
Si	25.4627664809		19.9903152212		14.5360378415
Si	25.3722153293		19.999254971		19.9979907403
Si	25.4660180914		20.0082643342		25.4599536819
Si	25.4652058491		25.4616330918		20.0078129017
Si	25.4689038972		25.463369545		25.4622846794
Si	14.5878610401		11.8359148656		22.7547710855
Si	14.5093415953		17.2823032526		17.2819492168
Si	14.5741154822		17.2535996899		22.7524105007
Si	14.5929810551		17.2535649139		28.1699723221
Si	14.5910651558		22.754798124		11.8319129395
Si	14.5783953775		22.7485808603		17.2536215845
Si	14.5145431731		22.7235551975		22.7184951685
Si	14.593281288		28.1711391928		17.2476885774
Si	20.0837518823		11.8264049597		17.3530024051
Si	19.9147006274		11.8264932375		22.6458318555
Si	20.084359899		17.3546402319		11.8250004612
Si	19.9950166845		17.2707005726		17.2702444642
Si	20.0069722062		17.2706221256		22.7294416335
Si	19.9188608175		17.3540816281		28.173686271
Si	19.9160916116		22.6473480908		11.825476517
Si	20.0072228116		22.730219139		17.2698031733
Si	19.9987380916		22.7299898228		22.7289438841
Si	20.0908932879		22.646578486		28.1737678794
Si	19.9182355742		28.1752290537		17.3536403363
Si	20.0894318278		28.175029771		22.6462550123
Si	25.4095997998		11.8308856483		17.2447776373
Si	25.409416217		17.2470113727		11.829473611
Si	25.4252674743		17.2520973526		17.2504595454
Si	25.4930902562		17.2795102997		22.7172196118
Si	25.4925209523		22.7189288863		17.2787859322
Si	25.4277705797		22.7465484319		22.7454225347
Si	25.4154302621		22.7516505747		28.166786139
Si	25.4144207998		28.1682122974		22.7513829144
Si	11.826629811		17.3587102289		20.0874796316
Si	11.8301935667		17.2588183393		25.4159299524
Si	11.833197657		22.7553185454		14.5908424988
Si	11.8290406652		22.6503624812		19.9149714853
Si	17.3523114687		11.8276947211		20.0850436402
Si	17.2462619769		11.834411227		25.4103651852
Si	17.2804807274		17.2816567317		14.5092756458
Si	17.2699375465		17.2710703491		19.9966926391
Si	17.2552171484		17.2549819434		25.424772685
Si	17.2541542109		22.7486254197		14.5757973441
Si	17.2737282013		22.7311025228		20.0049559642
Si	17.287511424		22.7223700298		25.4902522384
Si	17.2494055209		28.1704026883		14.5905951042
Si	17.3574724039		28.175721926		19.9157037393
Si	22.7518831812		11.8316805313		14.5884358345
Si	22.6461280143		11.8256619408		19.913860951
Si	22.7472809831		17.2530239045		14.5745783294
Si	22.73104627		17.2700979195		20.0038182397
Si	22.7225225429		17.2798708727		25.4894116368
Si	22.7207562592		22.7197206933		14.5081707422
Si	22.7324276113		22.7295634941		19.9936213899
Si	22.7522677621		22.7471896722		25.4230784913
Si	22.6501351678		28.1745814163		20.0839919654
Si	22.7587367533		28.1689044465		25.4087868993
Si	28.1691825075		17.2464917005		14.5871563095
Si	28.1759104513		17.3525036689		19.9123632792
Si	28.1767552215		22.6452231083		20.082131922
Si	28.1729064182		22.7513878606		25.4072618507
Si	11.8280072892		14.5975341773		22.7571967778
Si	11.8275923275		20.0876869593		17.3544999146
Si	11.830643606		19.9225822294		22.646890279
Si	11.8345547832		25.4126449798		17.2472916324
Si	17.2796670609		14.510584725		17.2812699686
Si	17.2529718023		14.5773061188		22.7481791895
Si	17.2483271218		14.5932345471		28.1691488608
Si	17.3539815426		20.0861693366		11.8256834482
Si	17.2720088621		19.9959212071		17.2703456118
Si	17.2737593251		20.005982557		22.7288315862
Si	17.3591917519		19.9175633708		28.1743080736
Si	17.2484000424		25.4114474221		11.831702861
Si	17.2554685505		25.4258737062		17.2526290188
Si	17.2857067217		25.4925053799		22.719168206
Si	22.7517485761		14.5907125897		11.8299870913
Si	22.7474730198		14.5756295632		17.2512473563
Si	22.7206749419		14.5088220773		22.7180891092
Si	22.6464520052		19.9157718028		11.824746563
Si	22.7309300547		20.0050886767		17.2692025326
Si	22.7327044885		19.9944907648		22.7282762272
Si	22.6515776337		20.0841076016		28.1727468747
Si	22.7218892848		25.4909255271		17.2796177896
Si	22.7514494264		25.424208561		22.7461464535
Si	22.7594335635		25.4095480888		28.1681152868
Si	28.1693696069		14.5891530712		17.2440049445
Si	28.1755976878		19.9143706834		17.3509776494
Si	28.1771040443		20.0833871291		22.6435184883
Si	28.1725418273		25.4086999219		22.7504679083
Si	13.1421711989		15.9467054262		18.6915464342
Si	13.2222055074		15.8849943428		24.1280172972
Si	13.1876938852		21.3899098266		13.1872313446
Si	13.3082973689		21.364917367		18.6380649553
Si	13.1485249157		21.3175890112		24.0570673504
Si	13.1899399459		26.8159547241		18.6123997707
Si	19.1435533517		10.6033336888		19.1448212954
Si	18.1270488213		10.6009788915		23.5882992509
Si	18.6882270913		15.944340413		13.1421923003
Si	18.6220064606		15.9225323027		18.6232093408
Si	18.6399778317		15.9098631231		24.0915401692
Si	18.1318069391		16.4140839048		29.4019198963
Si	18.6376668781		21.3642620089		13.3055106571
Si	18.637627659		21.3655133716		18.6349299125
Si	18.6266529759		21.3778687412		24.0779047098
Si	19.1512244692		20.8554724502		29.3979963268
Si	18.6136609389		26.8147262965		13.1868747671
Si	18.63989876		26.6953535143		18.6369238081
Si	18.694062785		26.8582348334		24.0568690393
Si	23.5875505056		10.5985171944		18.1268631727
Si	24.119075687		15.8806324657		13.225113893
Si	24.0920393125		15.9085198636		18.6367567409
Si	24.0817912708		15.9196227767		24.0776163114
Si	24.0575101904		21.3115578006		13.1411595172
Si	24.0805437009		21.3770968431		18.6209656934
Si	24.09489567		21.3606593092		24.089482142
Si	23.5939035419		21.8703116857		29.400073728
Si	24.0596234875		26.8571730771		18.6875719609
Si	24.1243037597		26.7728109973		24.1181622963
Si	29.402696933		16.4107413592		18.1254476462
Si	29.4000280997		20.8537398882		19.1420362143
Si	29.404989659		21.8696896488		23.5850516772
Si	10.5984697344		16.4214577479		21.8756631175
Si	10.6003653645		21.8742118097		16.4127527018
Si	10.6049286325		20.8604174995		20.8557357166
Si	16.409339096		10.6024917232		21.8722557912
Si	15.9201085536		15.9221695635		15.921203076
Si	15.9074289452		15.9109676359		21.3646121533
Si	15.8817098056		15.8848997503		26.7747360971
Si	16.4124410718		21.8730215777		10.5986398816
Si	15.9105215634		21.3626444138		15.9090476693
Si	15.9250504818		21.3792588139		21.3772973017
Si	15.9503226671		21.3155645103		26.8575154119
Si	15.8827893361		26.7750948012		15.8809361068
Si	15.9476013757		26.8590217333		21.3118202534
Si	21.8701719658		10.5989966114		16.4104926307
Si	20.8541491202		10.6026402802		20.854154787
Si	21.8704593231		16.4126848677		10.597151264
Si	21.3612649532		15.9092319096		15.9081011137
Si	21.3787524525		15.9215820789		21.3766596861
Si	21.3141785876		15.9431114038		26.8564265362
Si	20.8551292759		20.8559149358		10.6013340928
Si	21.3789049267		21.3778371611		15.9205649175
Si	21.3677820614		21.3647163396		21.3636854702
Si	21.3684332404		21.3632354194		26.6933060834
Si	21.3135758919		26.857892104		15.9430127357
Si	21.3671513303		26.6947342073		21.3626822689
Si	21.3948632039		26.8139144492		26.8132274887
Si	26.7738922618		15.8797463666		15.8776122653
Si	26.8590989396		15.9421479993		21.3086535623
Si	26.8585728264		21.3108000941		15.9410751953
Si	26.6969709287		21.3621719959		21.3608650781
Si	26.8179211965		21.3864509628		26.8109014805
Si	26.8170784187		26.8125496918		21.3860726734
Si	10.6038042965		19.1496385305		19.1466411923
Si	10.6012680558		18.1395811413		23.59086599
Si	10.6007720907		23.5917166142		18.1288433115
Si	15.9414875691		13.1450725488		18.6900385231
Si	15.8790177672		13.2305738915		24.1213486779
Si	15.9436213142		18.6901285152		13.1427137803
Si	15.9230821703		18.6237783351		18.6228000936
Si	15.9116790836		18.6405361264		24.0909721402
Si	16.4162549579		18.1322739103		29.4025504211
Si	15.88182178		24.1212312229		13.2271763705
Si	15.9121249219		24.092717126		18.6386521864
Si	15.9262172445		24.0820230311		24.0794887318
Si	16.4153319985		29.4031799571		18.1295753756
Si	21.3868041173		13.187319588		13.1854894693
Si	21.3630498636		13.3061343213		18.6357817711
Si	21.3120251107		13.1426844271		24.0556750499
Si	21.3633133047		18.6374608268		13.3048248642
Si	21.3660112154		18.635383187		18.6343625442
Si	21.3807384772		18.6222763639		24.0775088905
Si	20.8603938129		19.144766825		29.3969410207
Si	21.3126599253		24.0574747288		13.142078386
Si	21.3801296634		24.0788172267		18.6217167457
Si	21.366052326		24.0910504247		24.0902792096
Si	21.8777336255		23.5877537776		29.4008831346
Si	20.8586122963		29.3985754613		19.1449144391
Si	21.8763513888		29.4019238331		23.5874992221
Si	26.8139699362		13.1858444839		18.6091484094
Si	26.8134917851		18.61165879		13.1843486397
Si	26.695782947		18.6359606675		18.6343736987
Si	26.8604305194		18.687291298		24.054074374
Si	26.8596691827		24.0559321119		18.6865478901
Si	26.7773846864		24.1185408442		24.1175253177
Si	13.1834702213		13.1932383414		21.3924861386
Si	13.1436142426		18.6906342826		15.9442061198
Si	13.3084344405		18.6395816644		21.3657488244
Si	13.1924398162		18.6218914745		26.8152241151
Si	13.2294412783		24.1209682341		15.8814597836
Si	13.146622098		24.0602576248		21.3109927254
Si	18.6873728555		13.1437867792		15.9432516198
Si	18.636579681		13.3071400046		21.3630691947
Si	18.6122798188		13.1887111862		26.8135683243
Si	19.1448981979		19.1462835244		10.6014560269
Si	18.6232886247		18.6232401079		15.921110389
Si	18.6378605305		18.6357373335		21.363848613
Si	18.6409651136		18.6381458665		26.6939967903
Si	18.1295367415		23.5895911546		10.5985947816
Si	18.6406232192		24.0921068632		15.9087348958
Si	18.6266095746		24.0795601588		21.3771131417
Si	18.6958322539		24.0585920739		26.857360751
Si	18.1316791122		29.4028628213		16.4123493405
Si	19.1492203097		29.398857521		20.8552758821
Si	24.1193391289		13.2266367739		15.8784184622
Si	24.057482272		13.142178821		21.3094385195
Si	23.5876416562		18.1291826336		10.5970535869
Si	24.0918784422		18.6385366612		15.9073616893
Si	24.0808278808		18.6218442653		21.3757386222
Si	24.0608572295		18.6875079771		26.8553513147
Si	24.0812850633		24.0794244714		15.9192342586
Si	24.0944450157		24.0906899977		21.3599605713
Si	24.1250724236		24.1189641293		26.7720043001
Si	23.592753857		29.4016055039		21.8702550884
Si	29.4025038654		18.1277753225		16.4087798567
Si	29.4002620787		19.1436376253		20.8518018381
Si	29.4047358688		23.5866948529		21.8683666767
C	24.513449888235044		22.626867879791387		10.633048743466986
C	25.106774415792017		22.34798755842385		12.007820228897648
H	24.306422149525957		21.698440297677685		10.089383505406374
H	23.576712944973735		23.189739837705364		10.70987364908715
H	25.31256334379467		23.30572193352207		12.49965985038695
H	26.07438982943301		21.85027551086674		11.87702979308185
C	25.25412790937081		23.49634744741999		9.615059868045064
F	24.904196321697718		23.189907462976265		8.340007387210367
F	26.59974851363347		23.343680361332414		9.705013104836857
F	24.991588633110595		24.816073392195516		9.792510797620272
C	29.60284033784598		12.111094262232053		17.06254566913069
C	29.322887340934642		13.431171547159417		16.356268707068953
H	30.038977403021317		12.271353111448994		18.054771305026026
H	28.686686658858793		11.523374115434203		17.186845602864214
H	28.90771336253645		13.215182749515584		15.365062453883779
H	30.274950530886226		13.947863970483153		16.18981261340141
C	30.504917662982074		11.051346700604176		16.42686366915029
F	31.081267672808572		10.252872661842583		17.360874528078995
F	31.510762600050054		11.610383359150955		15.70724737446571
F	29.815641832849067		10.241818506489249		15.58326707940642
C	9.0940770838703		26.185152997280934		16.898644807942546
C	10.518644983630324		26.435241739946157		16.421290866337962
H	8.800171089347204		25.139577143350756		16.75442084682107
H	8.982199109088615		26.424213017504464		17.96191177041692
H	10.754911605633138		27.495363665371272		16.569040708843232
H	10.562953066698366		26.253374947559116		15.34144630682873
C	7.919214411336817		26.983266608694038		16.329775434567065
F	6.752611571561511		26.294958636658137		16.41571936314852
F	8.103859184953382		27.289607836359252		15.020518013580398
F	7.738251067151681		28.155212038276723		16.989993922222165
C	29.125881325506903		16.383083445574755		12.024385382797586
C	29.269364311176094		16.184997608601524		13.527708202358996
H	28.101420480331353		16.18614802165519		11.689562196014148
H	29.38700388338456		17.40560342627967		11.73032602343853
H	30.3124013993788		16.37443512823565		13.806450894081117
H	29.06976830145956		15.133334823604073		13.762803563131259
C	29.995912320711405		15.600946452019086		11.038379403761372
F	29.39186420938806		15.463984295188776		9.830702437100548
F	30.27029886490049		14.350479722967844		11.48908842131467
F	31.186738942874076		16.21418050703219		10.81936291346708
C	22.768789011959203		9.025910778793163		22.29520281884267
C	21.482437866586373		8.968308363534195		21.481699556185205
H	23.589884957958745		9.464336080235288		21.717279940407753
H	22.638950958701532		9.622895304305331		23.20457324074195
H	20.701553253914284		8.505689935448881		22.096283839329377
H	21.6397066802801		8.303438457912126		20.62477625860399
C	23.376342190219646		7.759760939152799		22.90236319235557
F	24.71681443469901		7.877824616488539		23.07931386026732
F	23.17419842897162		6.67427509332647		22.113090100897868
F	22.839404734096142		7.473910746458459		24.11565627683608
C	10.55519771338812		25.13534106230973		21.908702125552942
C	12.013527643831775		25.109839372152475		22.347368677242635
H	10.451472562879541		25.501234352343666		20.8811938071632
H	10.10624788460894		24.137290659943666		21.95912487414996
H	12.059770068199533		24.756561718128932		23.383981896701183
H	12.39610354434683		26.13683931696152		22.35049962076046
C	9.508504765435555		25.928980281008233		22.69322150915669
F	8.465123225306286		26.301241361515793		21.909070338363186
F	10.029730875935734		27.063535091012213		23.225389113798013
F	8.994610932810954		25.207747290772424		23.72172934864354
C	27.115900360044932		24.932826526000238		28.927978743578276
C	26.625792188602496		23.548700037595836		29.33269186442149
H	27.60622956943765		24.914440729552272		27.948361787924032
H	26.2890772486667		25.649867654706725		28.878799782282368
H	26.162946295189492		23.61863976711169		30.323849037924244
H	27.493333043118444		22.88759419850449		29.439532607422805
C	28.08543439413196		25.717429363150863		29.814151494616198
F	28.824466318455432		26.600303382230088		29.095484888834598
F	28.957773143717937		24.899218446684753		30.4557507751227
F	27.433754011042424		26.4293863113427		30.768364393039626
C	21.65274867828946		25.598837934509312		31.433975250849787
C	21.25333755411255		24.18015815274716		31.04975747861243
H	22.74178806530821		25.71531785230622		31.462885338567588
H	21.253085708631446		26.331524147753026		30.724296850722855
H	20.15930979953521		24.11241423403708		31.05470349643129
H	21.611858597652297		23.49348153541674		31.825025750664643
C	21.17708560859316		26.22492671749182		32.746475719402305
F	22.02665409362055		27.189266555104954		33.18282245749087
F	21.07869059893944		25.303987932370127		33.73858650491662
F	19.955107257243732		26.80124564332518		32.61717885996785
C	7.8099975912949375		22.26804138166334		15.87676088814443
C	8.951536551401952		21.262108524431454		15.807531161154646
H	7.645357513663149		22.618391432486867		16.90172851574315
H	8.010914200533476		23.142838021560188		15.248615711487574
H	9.061228534868615		20.930042190173854		14.768680812059134
H	8.673547822104345		20.376575123733655		16.390331188378475
C	6.409217514629989		21.908213692768573		15.377522256703323
F	5.448866819122869		22.639723516843453		15.997793429595413
F	6.115743300130711		20.60120560753781		15.595917277629725
F	6.276500819110224		22.12754310369715		14.044715758545381
C	16.300422977721777		9.223669670850914		26.130058439600642
C	16.358868515681024		10.681041523998767		26.568756817241876
H	15.80588646474493		9.116555623614943		25.158271235981747
H	17.303766191968393		8.79144535044177		26.04828106331526
H	16.8430199920599		10.730444494148587		27.550931508353663
H	15.33486677475325		11.04627087694654		26.70707154321942
C	15.632637192942921		8.161670886230963		27.005912723778685
F	15.178755010540359		7.114277607374805		26.271695662614597
F	14.56847074618721		8.662302712917661		27.683416363848366
F	16.48967442486316		7.657232692057057		27.929558524213604
C	19.163968093873738		11.414733675220917		12.804070460104501
C	20.326990149144045		12.106301900579432		12.104843776954251
H	19.510982676058802		10.776082394156695		13.623897009958773
H	18.45798750951865		12.142886110119152		13.218302827339869
H	19.928818839388402		12.714474514306318		11.284419429802071
H	20.963936861403223		11.341738532191982		11.645665434082698
C	18.191232967699484		10.525740904190446		12.026652794134451
F	17.614013874425286		9.591280676652197		12.823972435500997
F	18.810830095734786		9.859987591292757		11.019197802635498
F	17.186021151172973		11.24598456572372		11.467286594550835
C	30.042029808260367		27.544139697895677		23.1669446998986
C	29.23025206409492		26.459342638209915		23.862672447781907
H	30.719074892672595		27.12013742034185		22.41711660413104
H	29.391502028428437		28.268170336079077		22.664156224852995
H	28.586587050406408		26.93265716725252		24.61312506863851
H	29.917769689427676		25.804376071012673		24.409884764721745
C	30.926435959752204		28.50336132467632		23.966081502905247
F	31.9520238703265		28.985299072395772		23.219072899201812
F	31.474938792092992		27.899263138069102		25.050656838440776
F	30.2277752589109		29.574977975697262		24.41951645044965
C	28.87787078521129		13.921649037214973		21.5745209077573
C	27.992617512443715		14.892703990769602		22.344705162355712
H	28.28207542467526		13.223818269339915		20.975797049312813
H	29.557531416046192		14.452113925695452		20.898598251691908
H	28.634313335531367		15.552776311042743		22.939718970633376
H	27.385283859551382		14.322938496401962		23.05717700361855
C	29.88318087267437		13.024689064404651		22.299582584596646
F	30.150342033262458		11.894813451044321		21.596644165098294
F	29.42654538979903		12.636058308448593		23.517180139581146
F	31.067728543524403		13.655339662480163		22.502606996751318
C	31.29075014036364		15.991623526304684		20.243969912807792
C	31.051426373091534		15.817950212362035		18.74985928094586
H	31.213645057823122		17.042750171066523		20.543298718334654
H	30.566439131067753		15.418353493122781		20.83298437686482
H	31.1589365392894		14.755967604964228		18.500570422091993
H	31.841086902393062		16.34771965616738		18.20498902668949
C	32.58961188164963		15.513795469642838		20.896303052614655
F	32.87475276988815		16.212544866979435		22.024381224806767
F	33.652972830348574		15.652020530472234		20.064286850884905
F	32.52676889720243		14.20387367245601		21.245942749818223
C	23.96845473541665		32.22653806210792		22.197586964840124
C	24.198561666724753		31.05013931341504		21.257937216243448
H	22.904187657277173		32.35912191481147		22.421567453478644
H	24.498972998484845		32.088750628264506		23.14614798218479
H	25.272315594644045		30.973751027231888		21.051230270516182
H	23.711226477512003		31.26645579296697		20.300432854306003
C	24.449823450154906		33.632769044818176		21.83468396989932
F	23.711647323830206		34.592832663624655		22.447456573210264
F	24.372176681627828		33.8640341331058		20.499550615931778
F	25.74209840089925		33.833376436853456		22.19782911889557
C	15.724808338764573		19.74771116659866		8.798984873904784
C	15.806647083372521		21.261089670445962		8.949957685277871
H	16.700506143772227		19.27518096859496		8.95753819672658
H	15.018438553328114		19.31330453964316		9.514900802404489
H	14.813013744180724		21.684460098105735		8.762979885446605
H	16.46590453517024		21.655665387136615		8.168425456161737
C	15.208447621136129		19.109858007450363		7.507700646224921
F	15.710000458426753		17.86192182484288		7.325446854646304
F	15.548448325155931		19.837986655046322		6.413935667622973
F	13.855805447728482		18.998292544972973		7.50556251591054
C	13.101406567496063		27.905735882739204		14.07738787644566
C	13.47354353725682		26.5583272319956		13.472566523120081
H	12.561728636233406		27.785788122745572		15.023310926318413
H	13.990963241840246		28.51529293375375		14.270603126072006
H	13.991562933422085		26.733599807164254		12.522595018815704
H	12.551986329137105		26.017012574986655		13.230051032130573
C	12.26059851112841		28.916961083834572		13.295489286462994
F	11.575672924478557		29.749107609317473		14.12042898721638
F	11.346458973099887		28.305622123566184		12.500060335977183
F	13.027389185454878		29.697090652051315		12.492045329574946
C	29.368065565154623		24.511772751984832		17.3717482227987
C	27.99294681221769		25.104767259257663		17.64961652877371
H	29.911481126840762		24.30577758186786		18.300551575562793
H	29.29183358015364		23.574515454972673		16.809662418263244
H	27.50136796961006		25.309519728463712		16.691526189998406
H	28.123155040186703		26.072868875118647		18.14653512153969
C	30.38606072393341		25.252118837651444		16.501993354953125
F	31.661147693413398		24.902983994108776		16.80919766854064
F	30.29549291712754		26.597833979194473		16.653459076462
F	30.20919608680625		24.98835974115278		15.18243194582959
C	19.474777208558375		32.209688988902236		21.3262115788318
C	18.5207200089529		31.032883902196584		21.48340417911774
H	20.422727330208073		32.02999653374287		21.845356394199456
H	19.69841382306561		32.4034109560616		20.271383881010184
H	17.58493456267777		31.270870739758376		20.964580227196677
H	18.270100267373778		30.92483566469307		22.544826966042535
C	19.070765338487234		33.61797562591107		21.76712331247468
F	20.15059515762417		34.37785223948035		22.081243516939768
F	18.270163167363744		33.59369308481545		22.862814946279695
F	18.391648793066746		34.27634468808601		20.793756388336085
C	8.393787484994848		19.96657629835671		23.457976970855903
C	8.952603334769075		18.75522647372468		24.192933645908973
H	9.076233269036955		20.82169599986074		23.516698337008346
H	8.21960338554721		19.745105876227225		22.399292050956973
H	8.225999969710768		17.937706099502698		24.120695034225903
H	9.040355034941047		19.001376202739838		25.257270509464252
C	7.029828386681158		20.55367767783083		23.82652486238005
F	6.9452367687386145		21.87095433385954		23.510703902569468
F	6.776837991518355		20.44709125658502		25.15570838220016
F	6.017332773526445		19.924135835914473		23.1779711052257
C	12.03765307653155		15.987765607201743		28.48076534471714
C	13.396455133968205		16.205093498165517		29.13362859403904
H	11.525401055974008		16.93812879717689		28.294169992484086
H	12.134405771638267		15.462357147221601		27.524319907605914
H	13.856241004649485		15.226890992043831		29.315911998492396
H	13.243026589511505		16.665578858888512		30.116235292268655
C	10.971809719607588		15.115759338112507		29.147460931300795
F	9.718465894033693		15.470296269586127		28.76595178577861
F	11.016456595244781		15.21007085761331		30.50068139685151
F	11.1254908593941		13.803791132976754		28.83566964007093
C	12.087369292937256		20.70227505595109		10.628914421375583
C	12.106865945683975		20.330657526558053		12.105845414407922
H	11.748275581999737		21.733253004283778		10.47888083795392
H	13.082026679529495		20.604828046034786		10.180178673350238
H	12.432889549441638		19.2882765915948		12.198910045809997
H	11.08160562612893		20.37233898054984		12.490821962575493
C	11.269356647995181		19.891720379750044		9.62156322660611
F	10.913905449395614		20.636614362165624		8.54411076390755
F	10.123172843392148		19.414340403552465		10.169709811920033
F	11.961283639120804		18.82191190593834		9.153760766573548
C	23.761027664007724		9.265927057165388		13.796553400937476
C	23.391939168525475		10.656477471746859		13.296605310822166
H	24.5317233044045		9.31038453190565		14.574024888333074
H	22.89016532678795		8.74788195130149		14.21300395730951
H	22.6352355044122		10.554844430250673		12.510106284126152
H	24.273948553669715		11.104340980319698		12.824820686966843
C	24.26585155532322		8.189081120792967		12.834027729552403
F	25.045578924127298		7.27415218373334		13.464144131075813
F	25.008381668301784		8.718456338774397		11.828789178507353
F	23.243304468571665		7.50874224072499		12.256421689985846
C	19.386157750960546		23.11684928162028		8.063647045272091
C	18.754133311023722		24.18219528518445		8.949868160915585
H	20.239827478090877		22.63907075930569		8.556988541090266
H	18.66438547671484		22.334596477448862		7.804169989453789
H	17.921301722021727		24.640620649307152		8.404205115355985
H	19.48960991251235		24.976451054256923		9.12114265130406
C	19.908264992876074		23.4596924142402		6.666950007846037
F	20.89089819559819		22.610450287821774		6.272822860056925
F	20.423227118045723		24.714343756926244		6.614436652050847
F	18.92748812339302		23.39363732596727		5.731105078971458
C	18.30829891843131		7.893058702077371		19.57528708248494
C	18.51414448880113		8.969362985322883		18.517458383296606
H	19.238479356309078		7.673782130257777		20.111097019813997
H	17.55711666474017		8.197158428145023		20.312478771494714
H	17.56241796497695		9.136200368158867		17.999875210330192
H	19.2160629936436		8.591335768739409		17.765455161773012
C	17.76032600865377		6.514085883943597		19.202380047155582
F	18.158448849445755		5.5584342461683445		20.080072795135873
F	18.176863195042564		6.121236468312545		17.97182742999789
F	16.403286086305737		6.497629204431327		19.186128888640567
C	14.33798177992317		10.788916319915892		18.36471057322939
C	14.891503887723497		12.015107825263728		17.650656979870256
H	15.141173456362298		10.165544630585089		18.77300093405091
H	13.677361644553264		11.0732286612891		19.191118787907058
H	14.051725237722847		12.591618023889142		17.245788804677428
H	15.484179388723996		11.68180960095364		16.791150695259407
C	13.42926775415063		9.79532080574062		17.638138640400275
F	13.49569918244906		8.555815317797123		18.187073444992023
F	13.764807365899944		9.668290254621663		16.329181023580873
F	12.12784077299803		10.178351065346925		17.67897864840668
C	20.797753161775397		8.900282053345984		14.362853007907505
C	21.245189981672056		8.950420621719653		15.817875785035822
H	19.99372036590962		9.617836649337331		14.165225034573869
H	21.626673909656713		9.125604650488432		13.682909533088562
H	22.033399061310252		8.203287911109234		15.966299465463962
H	20.404944464825004		8.647756269910339		16.45308029593155
C	20.296178778356378		7.598069745150792		13.73550442674805
F	19.45175395604023		7.829785857963984		12.698503572592628
F	19.62350163762627		6.832297734952431		14.63171440623719
F	21.31678651393863		6.843164893715205		13.25532655486235
C	22.91103812351424		29.215913109052774		15.601849103265417
C	22.353640460836857		27.987976567673165		14.893834582378684
H	22.110211407278967		29.83867447748437		16.015678777712576
H	23.578607668823405		28.93365238396623		16.423361606669552
H	23.19101231956302		27.412133715822367		14.483074543443742
H	21.753679748081087		28.319276530646505		14.038620874125915
C	23.812517845402898		30.20984290985228		14.866772330332005
F	23.74865227072766		31.449982717609792		15.414577820069525
F	23.46641561892754		30.33464549540195		13.560353102798622
F	25.114780834430093		29.82873715911081		14.897785028726949
C	23.63120720398494		11.502098584876373		24.453687333984146
C	22.35188495172223		12.011876372473786		25.104276334765558
H	23.419977631098863		10.950380280428233		23.53097441493769
H	24.308898974264373		12.32674462775892		24.20691663788414
H	22.61639152950274		12.537090556850934		26.029315123271147
H	21.741461987623353		11.150468769205219		25.39832353341204
C	24.597345723915907		10.593788187577056		25.216870524616347
F	25.325800773504863		9.813780724168378		24.37838498105873
F	23.943235363054036		9.76103434528423		26.065843026267423
F	25.479307854353586		11.307459274273597		25.961792435817255
C	20.606970045892357		11.15647902887579		27.159667475526394
C	19.670657217226122		12.106710953046266		27.894638524590444
H	20.053994089512376		10.477881983585354		26.50077917491032
H	21.33216467378505		11.704855772302212		26.548456622428535
H	20.269667170417165		12.747564516327566		28.551908800662417
H	19.015059729958793		11.517808739044497		28.54616682492173
C	21.559123523760842		10.236298011007179		27.926199046263854
F	21.874108667606954		9.126825669934048		27.210676934411293
F	21.01880640507931		9.813320881617136		29.09719921444174
F	22.726913160386378		10.85790698569567		28.229451285293884
C	24.759625439212833		27.281651304217643		29.018411280531183
C	23.585278146950156		26.43125175927111		29.484816594512537
H	25.5490586838683		26.666120235926662		28.57307230053807
H	24.445616608751763		28.020243988820184		28.27270201503686
H	22.835760851139806		27.090261037377264		29.938072619349647
H	23.932346496753183		25.760801814017967		30.279261961152095
C	25.50628945663182		28.19761270275998		29.99021762002075
F	26.785362870402594		28.418789029443893		29.593772612864168
F	25.56350354739991		27.669211342257		31.23906195965487
F	24.90909007258201		29.411470122331345		30.099740831907905
C	19.01936039676116		14.324529480990115		31.155360067942667
C	18.756749087882476		15.821132842205197		31.05039080840092
H	18.114584083030323		13.74269990571881		30.947359302676645
H	19.795690216176233		14.005681401336968		30.45119323999032
H	19.684478976345464		16.355355928429773		31.285833747554214
H	18.030011259383897		16.10383371416677		31.820478696061375
C	19.569882382166778		13.707933214499633		32.442851655385105
F	19.220197348159406		12.402400421794026		32.567032624786854
F	19.10910053460949		14.349055927002116		33.54681514711622
F	20.925252591248316		13.762008358092945		32.4891090707867
C	27.23591426358775		19.081814109045656		28.466942553053407
C	27.898752897191187		20.32663698404619		27.89173318119119
H	26.35947502587301		19.33732282270928		29.072731056357956
H	26.911169424921944		18.40019128484376		27.67313267450127
H	28.77726857598264		20.018256319098004		27.313267973072577
H	28.270549556533204		20.93986901334151		28.72047724991715
C	28.020375515273635		18.102774325326763		29.342728854898258
F	27.208084097941455		17.420059422993887		30.189014518525553
F	28.945291957747727		18.738032953689693		30.10631885229969
F	28.684222410386035		17.181154495226085		28.599750751644315
C	31.698347846334585		22.55581960984602		19.36382942698005
C	31.034054235787764		21.481310085486296		18.512978002319485
H	31.05625055227033		23.43713068278454		19.470656429986388
H	31.930213443212192		22.182787126298027		20.367466871081557
H	31.72288673986294		20.63358084892657		18.42146105191472
H	30.889172993294665		21.87612892486801		17.500935256807747
C	33.062464978425474		23.13398469240567		18.981979211260697
F	33.23194476274238		24.390265347886608		19.46690387177229
F	33.2226126692535		23.203055689545703		17.635994237690586
F	34.08307187308394		22.380937482562004		19.465066925472406
C	20.49142775346009		31.85502342192921		17.70979068345381
C	21.487264570202875		31.03269938985345		18.517192124182188
H	20.139580339623475		31.30716850257474		16.82861616293271
H	19.616698997353197		32.12495478262825		18.311612643630447
H	21.82136314649985		31.631209271052178		19.372571860219825
H	22.373554224549814		30.8505365129046		17.89879876720032
C	20.865278366014504		33.234869632925594		17.164666703526656
F	20.14061648376683		33.55565012593892		16.06281306500683
F	22.174226659352726		33.300617049856626		16.811927030206718
F	20.651041121173783		34.21414663703737		18.079659176414225
C	14.072123197584697		27.308048092955026		23.435378163499998
C	14.898603654701134		27.98892619341846		22.3522623192276
H	13.387805562484079		26.56525013262014		23.010677427319056
H	14.712228928915		26.79989494705866		24.16493147960083
H	15.54928650697805		28.732975671294525		22.826089956269946
H	14.221709406334192		28.542252304840016		21.691393648426168
C	13.192887205612521		28.122322777326062		24.386588344697167
F	12.155210557387441		27.390471869784548		24.86589808991317
F	12.661617675630573		29.21138756288784		23.775209400046606
F	13.891520875719912		28.571094702084846		25.460183719054086
C	18.273548049684734		26.4378120123369		28.403171153738516
C	17.657356748679867		25.108041975467618		27.98865360837934
H	19.230431924200023		26.293944246826065		28.917063620738702
H	18.449387122222944		27.083334464177568		27.535654933291596
H	16.69703382157263		25.306297442261076		27.49877089286603
H	17.433091932087272		24.52946576600116		28.892012823187113
C	17.512430430194804		27.414741992627796		29.301618582868795
F	18.353983746541324		28.216351220420673		30.002565849546883
F	16.735035462453236		26.76748951581371		30.20650251464575
F	16.694908860456383		28.227375195192234		28.585114546311924
C	19.149462202214977		28.096892825836466		10.6773913017073
C	19.67291038436394		27.88122960120417		12.091356025434925
H	19.024937281798845		27.146755511716943		10.146220162230486
H	18.18133277348363		28.609607609549144		10.684600170327156
H	19.797768358685946		28.85940604594206		12.56999133400309
H	20.6716186556702		27.434042685010443		12.03045725771666
C	19.903010000411033		28.982527875699496		9.683049170301825
F	19.647141112842792		28.62931520501418		8.397791090910008
F	21.24696888827775		28.90522539064019		9.855943554616962
F	19.560810319913987		30.289653082875883		9.811171552155312
