499     

Si	14.5366964035		14.5406029264		20.0119125987
Si	14.5358935115		14.5398291329		25.4679062594
Si	14.5387861885		20.0110707459		14.5382991027
Si	14.6325986156		20.0012461143		20.0010729132
Si	14.5444800001		19.996361116		25.4615379256
Si	14.538032773		25.4657516998		14.5368697569
Si	14.5419208987		25.4648197135		19.9903143685
Si	20.0086361402		14.5384956583		14.5373049666
Si	20.00035645		14.6305599231		19.999474222
Si	19.9921764287		14.5382716515		25.4619365757
Si	20.0007172689		20.0007068045		14.6293558636
Si	20.0023189441		20.0005374729		19.9992441023
Si	20.0044896511		20.0005652703		25.3694447625
Si	19.9924075618		25.4630935243		14.5375779503
Si	20.0036166249		25.3710542998		19.9994297065
Si	20.0159980334		25.4634431561		25.461765722
Si	25.4636385429		14.535753484		14.5337147741
Si	25.4631391142		14.5370711111		19.9882529377
Si	25.4627664809		19.9903152212		14.5360378415
Si	25.3722153293		19.999254971		19.9979907403
Si	25.4660180914		20.0082643342		25.4599536819
Si	25.4652058491		25.4616330918		20.0078129017
Si	25.4689038972		25.463369545		25.4622846794
Si	14.5878610401		11.8359148656		22.7547710855
Si	14.5093415953		17.2823032526		17.2819492168
Si	14.5741154822		17.2535996899		22.7524105007
Si	14.5929810551		17.2535649139		28.1699723221
Si	14.5910651558		22.754798124		11.8319129395
Si	14.5783953775		22.7485808603		17.2536215845
Si	14.5145431731		22.7235551975		22.7184951685
Si	14.593281288		28.1711391928		17.2476885774
Si	20.0837518823		11.8264049597		17.3530024051
Si	19.9147006274		11.8264932375		22.6458318555
Si	20.084359899		17.3546402319		11.8250004612
Si	19.9950166845		17.2707005726		17.2702444642
Si	20.0069722062		17.2706221256		22.7294416335
Si	19.9188608175		17.3540816281		28.173686271
Si	19.9160916116		22.6473480908		11.825476517
Si	20.0072228116		22.730219139		17.2698031733
Si	19.9987380916		22.7299898228		22.7289438841
Si	20.0908932879		22.646578486		28.1737678794
Si	19.9182355742		28.1752290537		17.3536403363
Si	20.0894318278		28.175029771		22.6462550123
Si	25.4095997998		11.8308856483		17.2447776373
Si	25.409416217		17.2470113727		11.829473611
Si	25.4252674743		17.2520973526		17.2504595454
Si	25.4930902562		17.2795102997		22.7172196118
Si	25.4925209523		22.7189288863		17.2787859322
Si	25.4277705797		22.7465484319		22.7454225347
Si	25.4154302621		22.7516505747		28.166786139
Si	25.4144207998		28.1682122974		22.7513829144
Si	11.826629811		17.3587102289		20.0874796316
Si	11.8301935667		17.2588183393		25.4159299524
Si	11.833197657		22.7553185454		14.5908424988
Si	11.8290406652		22.6503624812		19.9149714853
Si	17.3523114687		11.8276947211		20.0850436402
Si	17.2462619769		11.834411227		25.4103651852
Si	17.2804807274		17.2816567317		14.5092756458
Si	17.2699375465		17.2710703491		19.9966926391
Si	17.2552171484		17.2549819434		25.424772685
Si	17.2541542109		22.7486254197		14.5757973441
Si	17.2737282013		22.7311025228		20.0049559642
Si	17.287511424		22.7223700298		25.4902522384
Si	17.2494055209		28.1704026883		14.5905951042
Si	17.3574724039		28.175721926		19.9157037393
Si	22.7518831812		11.8316805313		14.5884358345
Si	22.6461280143		11.8256619408		19.913860951
Si	22.7472809831		17.2530239045		14.5745783294
Si	22.73104627		17.2700979195		20.0038182397
Si	22.7225225429		17.2798708727		25.4894116368
Si	22.7207562592		22.7197206933		14.5081707422
Si	22.7324276113		22.7295634941		19.9936213899
Si	22.7522677621		22.7471896722		25.4230784913
Si	22.6501351678		28.1745814163		20.0839919654
Si	22.7587367533		28.1689044465		25.4087868993
Si	28.1691825075		17.2464917005		14.5871563095
Si	28.1759104513		17.3525036689		19.9123632792
Si	28.1767552215		22.6452231083		20.082131922
Si	28.1729064182		22.7513878606		25.4072618507
Si	11.8280072892		14.5975341773		22.7571967778
Si	11.8275923275		20.0876869593		17.3544999146
Si	11.830643606		19.9225822294		22.646890279
Si	11.8345547832		25.4126449798		17.2472916324
Si	17.2796670609		14.510584725		17.2812699686
Si	17.2529718023		14.5773061188		22.7481791895
Si	17.2483271218		14.5932345471		28.1691488608
Si	17.3539815426		20.0861693366		11.8256834482
Si	17.2720088621		19.9959212071		17.2703456118
Si	17.2737593251		20.005982557		22.7288315862
Si	17.3591917519		19.9175633708		28.1743080736
Si	17.2484000424		25.4114474221		11.831702861
Si	17.2554685505		25.4258737062		17.2526290188
Si	17.2857067217		25.4925053799		22.719168206
Si	22.7517485761		14.5907125897		11.8299870913
Si	22.7474730198		14.5756295632		17.2512473563
Si	22.7206749419		14.5088220773		22.7180891092
Si	22.6464520052		19.9157718028		11.824746563
Si	22.7309300547		20.0050886767		17.2692025326
Si	22.7327044885		19.9944907648		22.7282762272
Si	22.6515776337		20.0841076016		28.1727468747
Si	22.7218892848		25.4909255271		17.2796177896
Si	22.7514494264		25.424208561		22.7461464535
Si	22.7594335635		25.4095480888		28.1681152868
Si	28.1693696069		14.5891530712		17.2440049445
Si	28.1755976878		19.9143706834		17.3509776494
Si	28.1771040443		20.0833871291		22.6435184883
Si	28.1725418273		25.4086999219		22.7504679083
Si	13.1421711989		15.9467054262		18.6915464342
Si	13.2222055074		15.8849943428		24.1280172972
Si	13.1876938852		21.3899098266		13.1872313446
Si	13.3082973689		21.364917367		18.6380649553
Si	13.1485249157		21.3175890112		24.0570673504
Si	13.1899399459		26.8159547241		18.6123997707
Si	19.1435533517		10.6033336888		19.1448212954
Si	18.1270488213		10.6009788915		23.5882992509
Si	18.6882270913		15.944340413		13.1421923003
Si	18.6220064606		15.9225323027		18.6232093408
Si	18.6399778317		15.9098631231		24.0915401692
Si	18.1318069391		16.4140839048		29.4019198963
Si	18.6376668781		21.3642620089		13.3055106571
Si	18.637627659		21.3655133716		18.6349299125
Si	18.6266529759		21.3778687412		24.0779047098
Si	19.1512244692		20.8554724502		29.3979963268
Si	18.6136609389		26.8147262965		13.1868747671
Si	18.63989876		26.6953535143		18.6369238081
Si	18.694062785		26.8582348334		24.0568690393
Si	23.5875505056		10.5985171944		18.1268631727
Si	24.119075687		15.8806324657		13.225113893
Si	24.0920393125		15.9085198636		18.6367567409
Si	24.0817912708		15.9196227767		24.0776163114
Si	24.0575101904		21.3115578006		13.1411595172
Si	24.0805437009		21.3770968431		18.6209656934
Si	24.09489567		21.3606593092		24.089482142
Si	23.5939035419		21.8703116857		29.400073728
Si	24.0596234875		26.8571730771		18.6875719609
Si	24.1243037597		26.7728109973		24.1181622963
Si	29.402696933		16.4107413592		18.1254476462
Si	29.4000280997		20.8537398882		19.1420362143
Si	29.404989659		21.8696896488		23.5850516772
Si	10.5984697344		16.4214577479		21.8756631175
Si	10.6003653645		21.8742118097		16.4127527018
Si	10.6049286325		20.8604174995		20.8557357166
Si	16.409339096		10.6024917232		21.8722557912
Si	15.9201085536		15.9221695635		15.921203076
Si	15.9074289452		15.9109676359		21.3646121533
Si	15.8817098056		15.8848997503		26.7747360971
Si	16.4124410718		21.8730215777		10.5986398816
Si	15.9105215634		21.3626444138		15.9090476693
Si	15.9250504818		21.3792588139		21.3772973017
Si	15.9503226671		21.3155645103		26.8575154119
Si	15.8827893361		26.7750948012		15.8809361068
Si	15.9476013757		26.8590217333		21.3118202534
Si	21.8701719658		10.5989966114		16.4104926307
Si	20.8541491202		10.6026402802		20.854154787
Si	21.8704593231		16.4126848677		10.597151264
Si	21.3612649532		15.9092319096		15.9081011137
Si	21.3787524525		15.9215820789		21.3766596861
Si	21.3141785876		15.9431114038		26.8564265362
Si	20.8551292759		20.8559149358		10.6013340928
Si	21.3789049267		21.3778371611		15.9205649175
Si	21.3677820614		21.3647163396		21.3636854702
Si	21.3684332404		21.3632354194		26.6933060834
Si	21.3135758919		26.857892104		15.9430127357
Si	21.3671513303		26.6947342073		21.3626822689
Si	21.3948632039		26.8139144492		26.8132274887
Si	26.7738922618		15.8797463666		15.8776122653
Si	26.8590989396		15.9421479993		21.3086535623
Si	26.8585728264		21.3108000941		15.9410751953
Si	26.6969709287		21.3621719959		21.3608650781
Si	26.8179211965		21.3864509628		26.8109014805
Si	26.8170784187		26.8125496918		21.3860726734
Si	10.6038042965		19.1496385305		19.1466411923
Si	10.6012680558		18.1395811413		23.59086599
Si	10.6007720907		23.5917166142		18.1288433115
Si	15.9414875691		13.1450725488		18.6900385231
Si	15.8790177672		13.2305738915		24.1213486779
Si	15.9436213142		18.6901285152		13.1427137803
Si	15.9230821703		18.6237783351		18.6228000936
Si	15.9116790836		18.6405361264		24.0909721402
Si	16.4162549579		18.1322739103		29.4025504211
Si	15.88182178		24.1212312229		13.2271763705
Si	15.9121249219		24.092717126		18.6386521864
Si	15.9262172445		24.0820230311		24.0794887318
Si	16.4153319985		29.4031799571		18.1295753756
Si	21.3868041173		13.187319588		13.1854894693
Si	21.3630498636		13.3061343213		18.6357817711
Si	21.3120251107		13.1426844271		24.0556750499
Si	21.3633133047		18.6374608268		13.3048248642
Si	21.3660112154		18.635383187		18.6343625442
Si	21.3807384772		18.6222763639		24.0775088905
Si	20.8603938129		19.144766825		29.3969410207
Si	21.3126599253		24.0574747288		13.142078386
Si	21.3801296634		24.0788172267		18.6217167457
Si	21.366052326		24.0910504247		24.0902792096
Si	21.8777336255		23.5877537776		29.4008831346
Si	20.8586122963		29.3985754613		19.1449144391
Si	21.8763513888		29.4019238331		23.5874992221
Si	26.8139699362		13.1858444839		18.6091484094
Si	26.8134917851		18.61165879		13.1843486397
Si	26.695782947		18.6359606675		18.6343736987
Si	26.8604305194		18.687291298		24.054074374
Si	26.8596691827		24.0559321119		18.6865478901
Si	26.7773846864		24.1185408442		24.1175253177
Si	13.1834702213		13.1932383414		21.3924861386
Si	13.1436142426		18.6906342826		15.9442061198
Si	13.3084344405		18.6395816644		21.3657488244
Si	13.1924398162		18.6218914745		26.8152241151
Si	13.2294412783		24.1209682341		15.8814597836
Si	13.146622098		24.0602576248		21.3109927254
Si	18.6873728555		13.1437867792		15.9432516198
Si	18.636579681		13.3071400046		21.3630691947
Si	18.6122798188		13.1887111862		26.8135683243
Si	19.1448981979		19.1462835244		10.6014560269
Si	18.6232886247		18.6232401079		15.921110389
Si	18.6378605305		18.6357373335		21.363848613
Si	18.6409651136		18.6381458665		26.6939967903
Si	18.1295367415		23.5895911546		10.5985947816
Si	18.6406232192		24.0921068632		15.9087348958
Si	18.6266095746		24.0795601588		21.3771131417
Si	18.6958322539		24.0585920739		26.857360751
Si	18.1316791122		29.4028628213		16.4123493405
Si	19.1492203097		29.398857521		20.8552758821
Si	24.1193391289		13.2266367739		15.8784184622
Si	24.057482272		13.142178821		21.3094385195
Si	23.5876416562		18.1291826336		10.5970535869
Si	24.0918784422		18.6385366612		15.9073616893
Si	24.0808278808		18.6218442653		21.3757386222
Si	24.0608572295		18.6875079771		26.8553513147
Si	24.0812850633		24.0794244714		15.9192342586
Si	24.0944450157		24.0906899977		21.3599605713
Si	24.1250724236		24.1189641293		26.7720043001
Si	23.592753857		29.4016055039		21.8702550884
Si	29.4025038654		18.1277753225		16.4087798567
Si	29.4002620787		19.1436376253		20.8518018381
Si	29.4047358688		23.5866948529		21.8683666767
C	10.863120965160176		16.21380701492017		26.61272647448256
H	9.874000324422553		16.6418763385105		26.80217557072667
H	11.379817656693563		16.13218774405053		27.573906031839645
C	10.660764537524638		14.796981082822528		26.071841870957712
O	9.540300315367906		14.569653292739122		25.530666262100013
O	11.635738455984512		14.005638808628358		26.22413205546151
C	13.568652084568587		23.58042876311156		10.515628183250278
H	13.071354135763631		24.474636134417768		10.903676988191135
H	12.793855012067441		22.907264375942624		10.136098840259354
C	14.434966160412316		24.00804955846281		9.32923011456583
O	14.781509350605202		25.224428841584857		9.31138932359577
O	14.711285804200562		23.099121242476837		8.494073956858998
C	31.034054235787764		21.481310085486296		18.512978002319485
H	31.2200564992401		22.506126922096907		18.84860809213568
H	31.0642194830607		21.47897892810793		17.41909138046956
C	32.18980918540713		20.611671872561917		19.011836574514074
O	32.818205828963826		21.05518138516283		20.016030782573047
O	32.39237768876501		19.542909536598042		18.36631189832238
C	10.518644983630324		26.435241739946157		16.421290866337962
H	9.552617523757247		25.92128921420933		16.433025254260116
H	10.773844403147342		26.639804956509288		15.377006199876021
C	10.33835511252632		27.780252850311864		17.127931280813463
O	9.370895188220155		27.849681553368942		17.93983643965489
O	11.176190154604223		28.67786076284086		16.824086724285525
C	18.754133311023722		24.18219528518445		8.949868160915585
H	19.811045265880608		23.933066621712616		8.814347031502743
H	18.653613537546324		25.26778951975442		8.855611856572086
C	17.97424966850881		23.54146087503084		7.800024293348
O	18.52872316164301		22.549254373661107		7.244979753737719
O	16.859055128242517		24.072991898919938		7.528353638135373
C	27.992617512443715		14.892703990769602		22.344705162355712
H	28.226760031510903		13.948877363691983		21.84284609191446
H	27.536722181227642		14.651938251890654		23.309948460108906
C	29.314060580383025		15.612564635353133		22.621271376082063
O	30.284392807904688		15.28569103020438		21.87857490282404
O	29.293820008061335		16.457003929042845		23.562813534142396
C	25.10417047038786		27.87382083501756		17.532172057463505
H	24.54840865399689		28.736274674677578		17.151651196409198
H	25.431513378070612		27.282947814769507		16.671231285614045
C	26.355559317327906		28.40122159149658		18.236994301592773
O	26.292871006173943		29.595687378715546		18.648468110854104
O	27.31797167239555		27.585946606994717		18.332273865816383
C	31.037012567746547		18.51665059137092		21.474325007058955
H	31.736761529206298		18.350641478139213		20.64953029741296
H	30.920505574196817		17.56820711164682		22.007602049620186
C	31.68196681924336		19.515378996064175		22.437380346660497
O	32.57030535266076		20.265165091654005		21.93871763720051
O	31.257337746490375		19.4836590405389		23.628460961855964
C	21.487264570202875		31.03269938985345		18.517192124182188
H	20.95883425072133		31.337348583971636		17.608652519224993
H	22.554308454949442		30.981426626588732		18.27993325781012
C	21.29513966228443		32.13651626518493		19.5591020653435
O	20.28186265083274		32.8759936347584		19.396522992728872
O	22.170282632097816		32.19066158550666		20.470793956046418
C	22.353640460836857		27.987976567673165		14.893834582378684
H	22.32309105905267		29.015539133966893		15.268902381852964
H	22.00146940934787		28.001496105986682		13.857834538712211
C	23.816757706019143		27.54071590188592		14.881758834379275
O	24.587650932275125		28.159702702617754		15.670788625409
O	24.097817090475793		26.600157452270032		14.084046817317347
C	10.861306927737484		13.4022260143679		23.80425399055207
H	10.805296320606443		13.741771987205254		24.843034666161095
H	11.324509038718494		12.410789952181426		23.802966792465092
C	9.429437564474442		13.247121229822795		23.287927899443062
O	8.549947007118927		13.925320874362718		23.89334563833779
O	9.279442125513697		12.457404286465227		22.31128182508196
C	27.898752897191187		20.32663698404619		27.89173318119119
H	27.303135907064995		19.766647555934885		28.61915753414934
H	28.618588009041584		20.934268790772812		28.448621246336664
C	28.68948013218324		19.3143950819339		27.060458995708494
O	28.2099178213496		18.144757688001114		27.01621655407133
O	29.737559820520577		19.756250396128383		26.507031597477432
C	23.585278146950156		26.43125175927111		29.484816594512537
H	24.187283403874304		27.232126473429073		29.04472193349278
H	24.24813752790245		25.818533200095523		30.103441461637466
C	22.55367953302484		27.079804547050312		30.410064443043506
O	22.273195272464545		28.287651696017214		30.16021872823039
O	22.092464617596637		26.338254135775333		31.325145218835708
C	12.106865945683975		20.330657526558053		12.105845414407922
H	11.451164064557421		20.943798054237238		11.480059760845629
H	11.47248816643429		19.67086268111181		12.705627802459462
C	12.946205821928894		19.450739154676018		11.17732388478697
O	13.088026403199482		19.8772935025261		9.994984107921512
O	13.40785415403377		18.39154075074416		11.692074888159466
C	31.051426373091534		15.817950212362035		18.74985928094586
H	31.353609570904215		16.363853909118973		19.648841158753644
H	31.833262220820195		15.958100286468252		17.99713490786204
C	31.006915879407554		14.329809180216051		19.102499443711665
O	30.853806921062397		14.05945563124123		20.32865426359828
O	31.12802266554871		13.530218506313835		18.12988598634067
C	18.51414448880113		8.969362985322883		18.517458383296606
H	18.82560375555131		8.148289819674957		19.170394773466686
H	18.894160300155978		8.758151160634847		17.51322690294346
C	16.985754441639774		8.954718532525225		18.44883328773851
O	16.396924239839848		8.396743948910537		19.4193653038968
O	16.475702167962975		9.50216404172453		17.428961173464053
C	14.898603654701134		27.98892619341846		22.3522623192276
H	14.379145887658757		28.727380087308894		21.73392307362095
H	15.506647194826765		28.533890459618792		23.08082276268869
C	13.838767306994676		27.202688261830886		23.126521210692935
O	12.680776580711608		27.192210551889406		22.61766294718845
O	14.234756480381655		26.647876315390935		24.192056435614106
C	14.891503887723497		12.015107825263728		17.650656979870256
H	15.380471286477368		11.047738961138258		17.50031632842672
H	14.701033203881908		12.448367154423106		16.663990577182254
C	13.537286087056513		11.753652845603657		18.31295256491339
O	13.437302477540296		10.665120315524483		18.94941878215319
O	12.663613651183379		12.654204371875467		18.152663887131663
C	13.47354353725682		26.5583272319956		13.472566523120081
H	12.871832510363976		27.23943374185057		14.082100533778016
H	12.787138097477172		25.96611950694842		12.859671017723485
C	14.324716271909075		27.40889494018812		12.527611736072188
O	14.53944005484956		28.598209364995476		12.90099348828415
O	14.7219689955221		26.831122019772984		11.474826020498027
C	27.99294681221769		25.104767259257663		17.64961652877371
H	29.043029275340686		24.889675217299924		17.869971201807864
H	27.82575596693878		26.170241198161744		17.83486183821809
C	27.7697083218317		24.851656245686595		16.157303092789427
O	28.58905374729401		24.06214379491545		15.604734363352687
O	26.789858799007174		25.459186840661193		15.636927722801229
C	12.013527643831775		25.109839372152475		22.347368677242635
H	11.488333650834933		25.84897822078138		21.734719528081737
H	12.57063156252091		25.65182526911621		23.11768668246751
C	10.957895539572629		24.25513845898477		23.051660668882253
O	9.821532128933551		24.217312044913424		22.497371576206575
O	11.335280165918093		23.67845167532997		24.112321893899917
C	24.198561666724753		31.05013931341504		21.257937216243448
H	23.623034311850517		31.87100251113287		21.696623689962355
H	24.108885786457172		31.12539121868399		20.169912076298775
C	25.669165439251678		31.268163335373085		21.619448032234914
O	25.884290575457822		31.978159680369725		22.64395542740769
O	26.51137558012431		30.71492198718346		20.85485982531263
C	26.625792188602496		23.548700037595836		29.33269186442149
H	27.583392365408514		23.74018015241644		28.83889918038357
H	26.82039951015512		22.909174971574185		30.199086115457426
C	26.094792230559985		24.88631207221875		29.85205020833329
O	26.53559498871448		25.91756223524497		29.267067245708063
O	25.27221091433681		24.81677873439945		30.810441636734154
C	29.269364311176094		16.184997608601524		13.527708202358996
H	28.824211884787356		16.013206027656018		12.542913341590285
H	29.44101794058413		15.208132056725558		13.990063090912273
C	30.63342094864122		16.84385168350945		13.312857561762893
O	30.78146337723438		17.45709657779935		12.216498507500281
O	31.466108496176908		16.704309950370995		14.254743218194562
C	29.322887340934642		13.431171547159417		16.356268707068953
H	29.842594387177602		12.773813405555144		17.060029183049235
H	30.082258795069585		13.983146529701283		15.793968136917288
C	28.563789675226833		12.545291264243419		15.366376360266726
O	28.288364030832497		11.378997856491099		15.771208965603114
O	28.293438982245203		13.07465411878076		14.249830567233394
C	17.657356748679867		25.108041975467618		27.98865360837934
H	18.162276630109034		25.27867886266211		28.944390451797094
H	16.696406256125275		24.629512502532666		28.200990633628564
C	17.36834628378352		26.47491008395964		27.36491926976406
O	18.106091913816122		27.425039470060167		27.756038908667595
O	16.422807796362306		26.50753206652941		26.525346871481208
C	16.358868515681024		10.681041523998767		26.568756817241876
H	15.943196507637076		9.823128646469623		26.03145222569405
H	15.532287622976819		11.188169494452854		27.07579583674574
C	17.303931559393465		10.1423867493944		27.644678225712262
O	17.77389018581262		8.986805301271787		27.435490646948445
O	17.513454730755647		10.9106859764348		28.627432200668075
C	22.35188495172223		12.011876372473786		25.104276334765558
H	21.749286238828986		11.206403024447344		25.53506796030914
H	22.81855154607577		12.55657201249255		25.930733996935263
C	23.46978231619267		11.367508669662039		24.28208673006166
O	23.24598513327881		10.190363838342007		23.876828906057792
O	24.497325784604612		12.081365757321265		24.096206349648227
C	25.106774415792017		22.34798755842385		12.007820228897648
H	24.891054542175507		22.128199419789023		10.957747822802567
H	26.17215645938515		22.161756573445373		12.174500879614117
C	24.855052548361584		23.840439440583783		12.231702968059466
O	24.065679814828034		24.39398979953953		11.412885696286493
O	25.463442194935546		24.359932721138637		13.211487539432156
C	29.23025206409492		26.459342638209915		23.862672447781907
H	30.094970892753675		26.85921204123878		23.324286196393217
H	29.60583647173873		25.881718353598444		24.712842934485565
C	28.439876429291463		27.64532002857336		24.419147052283982
O	28.609109521865072		28.74768438445668		23.82237069203173
O	27.702378752855633		27.395650161902726		25.416017741906472
C	21.245189981672056		8.950420621719651		15.817875785035822
H	20.153942852804033		8.895850410713285		15.878668412944279
H	21.653114127642016		8.132868320935955		16.420129423063823
C	21.642939717390533		8.698801957901162		14.362065634036018
O	20.750346789112967		8.939066391961802		13.49861910817909
O	22.821506906635264		8.277628638254317		14.178813206621161
C	13.396455133968205		16.205093498165517		29.13362859403904
H	12.364279125487702		16.528319818330818		28.967401697088953
H	13.594627520148771		16.264650701355396		30.20819081317933
C	13.494906287664591		14.73438236762056		28.72348698333973
O	12.621525338587361		14.333030278941662		27.901227136574704
O	14.439071685834744		14.078321990910784		29.250863054004316
C	17.65449914820042		27.988381309906398		25.106476769208754
H	17.44841526564898		27.542033278661982		26.084125385101377
H	16.693253729531772		28.199680531582587		24.628080278933616
C	18.359028041403906		29.325415839280307		25.344967242610426
O	18.957089655961		29.44195491586775		26.453448178721423
O	18.267508886768095		30.170178372949387		24.407956280591442
C	19.670657217226122		12.106710953046266		27.894638524590444
H	19.130436748984003		11.206491753886478		28.203282635106703
H	19.98084951576342		12.63558713241277		28.801045741423383
C	20.936636261545765		11.660480865949339		27.16042073080375
O	20.90076381493906		10.500431060087774		26.657442945613397
O	21.88272281789977		12.499699988797765		27.135510318688798
C	8.952603334769075		18.75522647372468		24.192933645908973
H	8.831727674128583		19.823999953175413		23.991423665790133
H	8.844338003175862		18.605850606875883		25.27157574886907
C	7.801924633563225		18.019079532432198		23.50378474515026
O	7.264873853218782		18.625104266904803		22.532033996532675
O	7.511659990068136		16.88377958142405		23.98005094684587
C	19.67291038436394		27.88122960120417		12.091356025434925
H	19.53269918598296		27.626802594975835		11.036319691392226
H	20.73469070899578		27.756898434910813		12.325167105610422
C	19.329560447264285		29.362400941922374		12.262067126798305
O	18.56270814073955		29.853944727763643		11.384393335758306
O	19.849550881366074		29.935790307482183		13.262478852442078
C	21.482437866586373		8.968308363534195		21.481699556185205
H	22.56767451937393		8.988607093039182		21.620779809373587
H	21.25206011222159		8.160252277268336		20.780646940725752
C	20.847806531998604		8.611443306221128		22.827355678687642
O	21.549174950716484		8.861616779507226		23.849845097405094
O	19.69015062746378		8.104690854081		22.772366626635275
C	23.391939168525475		10.656477471746859		13.296605310822166
H	23.491307028147364		11.151550022063391		12.325768998049899
H	22.7174871982051		9.804389087538361		13.16790704693367
C	24.767091418676827		10.107032254449452		13.681269114802573
O	25.757902638033872		10.673299126129614		13.1357198553092
O	24.764987703408995		9.145725044968088		14.503384106930332
C	20.326990149144045		12.106301900579432		12.104843776954251
H	20.90865290123317		11.28522979476221		11.674724040507549
H	19.894615906595707		12.676812194721943		11.27715190399779
C	19.17261447022834		11.492077548154562		12.899227334699596
O	19.347726346185		10.303080348703446		13.293702337071537
O	18.167529115948522		12.23945948182695		13.075898534198366
C	18.756749087882476		15.821132842205197		31.05039080840092
H	18.48278599480938		14.776137197997095		31.22481063244599
H	18.339223946667367		16.41546021238997		31.868896184927276
C	20.281171436358832		15.922176875761433		31.13301409052236
O	20.91607287888509		14.850052197480313		30.91521172736099
O	20.742299771752787		17.066950232913932		31.410220973464686
C	8.951536551401952		21.262108524431454		15.807531161154646
H	8.128836479959618		21.7965370100013		16.29234528436095
H	8.824338374696245		20.195548858681143		16.016754537327895
C	8.808446012129396		21.45993617634812		14.297137398684798
O	8.153948968469951		22.480192604964707		13.93561357290346
O	9.36006376374872		20.581913950486054		13.572717724814286
C	21.25333755411255		24.18015815274716		31.04975747861243
H	22.00518261430848		24.787922032719468		31.562442586119943
H	21.003357283293223		23.339042919031073		31.703621643184725
C	19.994516271301787		25.0349922464104		30.889983731539854
O	20.17288645694437		26.28698609068013		30.916147211517472
O	18.91107826608852		24.397607354031724		30.748946060235625
C	18.5207200089529		31.032883902196584		21.48340417911774
H	19.346423481505756		31.68657968400449		21.78070797670652
H	17.87230425463984		30.89894714654458		22.354679837531336
C	17.712041563283716		31.764166635229373		20.410014810864933
O	18.33266189514719		32.66120372556623		19.76959003063102
O	16.509997285424213		31.392907491065973		20.278693682175433
C	15.806647083372521		21.261089670445962		8.949957685277871
H	15.745303999509728		22.076979560842492		8.223283989172844
H	14.810665478297722		20.81575748366444		9.0348293747215
C	16.744410635974475		20.1969752347177		8.37623302388873
O	17.574065997777623		20.60317529963338		7.512136660747567
O	16.5889888809715		19.025697755502335		8.827832604994267
