391     

Si	14.5366964035		14.5406029264		20.0119125987
Si	14.5358935115		14.5398291329		25.4679062594
Si	14.5387861885		20.0110707459		14.5382991027
Si	14.6325986156		20.0012461143		20.0010729132
Si	14.5444800001		19.996361116		25.4615379256
Si	14.538032773		25.4657516998		14.5368697569
Si	14.5419208987		25.4648197135		19.9903143685
Si	20.0086361402		14.5384956583		14.5373049666
Si	20.00035645		14.6305599231		19.999474222
Si	19.9921764287		14.5382716515		25.4619365757
Si	20.0007172689		20.0007068045		14.6293558636
Si	20.0023189441		20.0005374729		19.9992441023
Si	20.0044896511		20.0005652703		25.3694447625
Si	19.9924075618		25.4630935243		14.5375779503
Si	20.0036166249		25.3710542998		19.9994297065
Si	20.0159980334		25.4634431561		25.461765722
Si	25.4636385429		14.535753484		14.5337147741
Si	25.4631391142		14.5370711111		19.9882529377
Si	25.4627664809		19.9903152212		14.5360378415
Si	25.3722153293		19.999254971		19.9979907403
Si	25.4660180914		20.0082643342		25.4599536819
Si	25.4652058491		25.4616330918		20.0078129017
Si	25.4689038972		25.463369545		25.4622846794
Si	14.5878610401		11.8359148656		22.7547710855
Si	14.5093415953		17.2823032526		17.2819492168
Si	14.5741154822		17.2535996899		22.7524105007
Si	14.5929810551		17.2535649139		28.1699723221
Si	14.5910651558		22.754798124		11.8319129395
Si	14.5783953775		22.7485808603		17.2536215845
Si	14.5145431731		22.7235551975		22.7184951685
Si	14.593281288		28.1711391928		17.2476885774
Si	20.0837518823		11.8264049597		17.3530024051
Si	19.9147006274		11.8264932375		22.6458318555
Si	20.084359899		17.3546402319		11.8250004612
Si	19.9950166845		17.2707005726		17.2702444642
Si	20.0069722062		17.2706221256		22.7294416335
Si	19.9188608175		17.3540816281		28.173686271
Si	19.9160916116		22.6473480908		11.825476517
Si	20.0072228116		22.730219139		17.2698031733
Si	19.9987380916		22.7299898228		22.7289438841
Si	20.0908932879		22.646578486		28.1737678794
Si	19.9182355742		28.1752290537		17.3536403363
Si	20.0894318278		28.175029771		22.6462550123
Si	25.4095997998		11.8308856483		17.2447776373
Si	25.409416217		17.2470113727		11.829473611
Si	25.4252674743		17.2520973526		17.2504595454
Si	25.4930902562		17.2795102997		22.7172196118
Si	25.4925209523		22.7189288863		17.2787859322
Si	25.4277705797		22.7465484319		22.7454225347
Si	25.4154302621		22.7516505747		28.166786139
Si	25.4144207998		28.1682122974		22.7513829144
Si	11.826629811		17.3587102289		20.0874796316
Si	11.8301935667		17.2588183393		25.4159299524
Si	11.833197657		22.7553185454		14.5908424988
Si	11.8290406652		22.6503624812		19.9149714853
Si	17.3523114687		11.8276947211		20.0850436402
Si	17.2462619769		11.834411227		25.4103651852
Si	17.2804807274		17.2816567317		14.5092756458
Si	17.2699375465		17.2710703491		19.9966926391
Si	17.2552171484		17.2549819434		25.424772685
Si	17.2541542109		22.7486254197		14.5757973441
Si	17.2737282013		22.7311025228		20.0049559642
Si	17.287511424		22.7223700298		25.4902522384
Si	17.2494055209		28.1704026883		14.5905951042
Si	17.3574724039		28.175721926		19.9157037393
Si	22.7518831812		11.8316805313		14.5884358345
Si	22.6461280143		11.8256619408		19.913860951
Si	22.7472809831		17.2530239045		14.5745783294
Si	22.73104627		17.2700979195		20.0038182397
Si	22.7225225429		17.2798708727		25.4894116368
Si	22.7207562592		22.7197206933		14.5081707422
Si	22.7324276113		22.7295634941		19.9936213899
Si	22.7522677621		22.7471896722		25.4230784913
Si	22.6501351678		28.1745814163		20.0839919654
Si	22.7587367533		28.1689044465		25.4087868993
Si	28.1691825075		17.2464917005		14.5871563095
Si	28.1759104513		17.3525036689		19.9123632792
Si	28.1767552215		22.6452231083		20.082131922
Si	28.1729064182		22.7513878606		25.4072618507
Si	11.8280072892		14.5975341773		22.7571967778
Si	11.8275923275		20.0876869593		17.3544999146
Si	11.830643606		19.9225822294		22.646890279
Si	11.8345547832		25.4126449798		17.2472916324
Si	17.2796670609		14.510584725		17.2812699686
Si	17.2529718023		14.5773061188		22.7481791895
Si	17.2483271218		14.5932345471		28.1691488608
Si	17.3539815426		20.0861693366		11.8256834482
Si	17.2720088621		19.9959212071		17.2703456118
Si	17.2737593251		20.005982557		22.7288315862
Si	17.3591917519		19.9175633708		28.1743080736
Si	17.2484000424		25.4114474221		11.831702861
Si	17.2554685505		25.4258737062		17.2526290188
Si	17.2857067217		25.4925053799		22.719168206
Si	22.7517485761		14.5907125897		11.8299870913
Si	22.7474730198		14.5756295632		17.2512473563
Si	22.7206749419		14.5088220773		22.7180891092
Si	22.6464520052		19.9157718028		11.824746563
Si	22.7309300547		20.0050886767		17.2692025326
Si	22.7327044885		19.9944907648		22.7282762272
Si	22.6515776337		20.0841076016		28.1727468747
Si	22.7218892848		25.4909255271		17.2796177896
Si	22.7514494264		25.424208561		22.7461464535
Si	22.7594335635		25.4095480888		28.1681152868
Si	28.1693696069		14.5891530712		17.2440049445
Si	28.1755976878		19.9143706834		17.3509776494
Si	28.1771040443		20.0833871291		22.6435184883
Si	28.1725418273		25.4086999219		22.7504679083
Si	13.1421711989		15.9467054262		18.6915464342
Si	13.2222055074		15.8849943428		24.1280172972
Si	13.1876938852		21.3899098266		13.1872313446
Si	13.3082973689		21.364917367		18.6380649553
Si	13.1485249157		21.3175890112		24.0570673504
Si	13.1899399459		26.8159547241		18.6123997707
Si	19.1435533517		10.6033336888		19.1448212954
Si	18.1270488213		10.6009788915		23.5882992509
Si	18.6882270913		15.944340413		13.1421923003
Si	18.6220064606		15.9225323027		18.6232093408
Si	18.6399778317		15.9098631231		24.0915401692
Si	18.1318069391		16.4140839048		29.4019198963
Si	18.6376668781		21.3642620089		13.3055106571
Si	18.637627659		21.3655133716		18.6349299125
Si	18.6266529759		21.3778687412		24.0779047098
Si	19.1512244692		20.8554724502		29.3979963268
Si	18.6136609389		26.8147262965		13.1868747671
Si	18.63989876		26.6953535143		18.6369238081
Si	18.694062785		26.8582348334		24.0568690393
Si	23.5875505056		10.5985171944		18.1268631727
Si	24.119075687		15.8806324657		13.225113893
Si	24.0920393125		15.9085198636		18.6367567409
Si	24.0817912708		15.9196227767		24.0776163114
Si	24.0575101904		21.3115578006		13.1411595172
Si	24.0805437009		21.3770968431		18.6209656934
Si	24.09489567		21.3606593092		24.089482142
Si	23.5939035419		21.8703116857		29.400073728
Si	24.0596234875		26.8571730771		18.6875719609
Si	24.1243037597		26.7728109973		24.1181622963
Si	29.402696933		16.4107413592		18.1254476462
Si	29.4000280997		20.8537398882		19.1420362143
Si	29.404989659		21.8696896488		23.5850516772
Si	10.5984697344		16.4214577479		21.8756631175
Si	10.6003653645		21.8742118097		16.4127527018
Si	10.6049286325		20.8604174995		20.8557357166
Si	16.409339096		10.6024917232		21.8722557912
Si	15.9201085536		15.9221695635		15.921203076
Si	15.9074289452		15.9109676359		21.3646121533
Si	15.8817098056		15.8848997503		26.7747360971
Si	16.4124410718		21.8730215777		10.5986398816
Si	15.9105215634		21.3626444138		15.9090476693
Si	15.9250504818		21.3792588139		21.3772973017
Si	15.9503226671		21.3155645103		26.8575154119
Si	15.8827893361		26.7750948012		15.8809361068
Si	15.9476013757		26.8590217333		21.3118202534
Si	21.8701719658		10.5989966114		16.4104926307
Si	20.8541491202		10.6026402802		20.854154787
Si	21.8704593231		16.4126848677		10.597151264
Si	21.3612649532		15.9092319096		15.9081011137
Si	21.3787524525		15.9215820789		21.3766596861
Si	21.3141785876		15.9431114038		26.8564265362
Si	20.8551292759		20.8559149358		10.6013340928
Si	21.3789049267		21.3778371611		15.9205649175
Si	21.3677820614		21.3647163396		21.3636854702
Si	21.3684332404		21.3632354194		26.6933060834
Si	21.3135758919		26.857892104		15.9430127357
Si	21.3671513303		26.6947342073		21.3626822689
Si	21.3948632039		26.8139144492		26.8132274887
Si	26.7738922618		15.8797463666		15.8776122653
Si	26.8590989396		15.9421479993		21.3086535623
Si	26.8585728264		21.3108000941		15.9410751953
Si	26.6969709287		21.3621719959		21.3608650781
Si	26.8179211965		21.3864509628		26.8109014805
Si	26.8170784187		26.8125496918		21.3860726734
Si	10.6038042965		19.1496385305		19.1466411923
Si	10.6012680558		18.1395811413		23.59086599
Si	10.6007720907		23.5917166142		18.1288433115
Si	15.9414875691		13.1450725488		18.6900385231
Si	15.8790177672		13.2305738915		24.1213486779
Si	15.9436213142		18.6901285152		13.1427137803
Si	15.9230821703		18.6237783351		18.6228000936
Si	15.9116790836		18.6405361264		24.0909721402
Si	16.4162549579		18.1322739103		29.4025504211
Si	15.88182178		24.1212312229		13.2271763705
Si	15.9121249219		24.092717126		18.6386521864
Si	15.9262172445		24.0820230311		24.0794887318
Si	16.4153319985		29.4031799571		18.1295753756
Si	21.3868041173		13.187319588		13.1854894693
Si	21.3630498636		13.3061343213		18.6357817711
Si	21.3120251107		13.1426844271		24.0556750499
Si	21.3633133047		18.6374608268		13.3048248642
Si	21.3660112154		18.635383187		18.6343625442
Si	21.3807384772		18.6222763639		24.0775088905
Si	20.8603938129		19.144766825		29.3969410207
Si	21.3126599253		24.0574747288		13.142078386
Si	21.3801296634		24.0788172267		18.6217167457
Si	21.366052326		24.0910504247		24.0902792096
Si	21.8777336255		23.5877537776		29.4008831346
Si	20.8586122963		29.3985754613		19.1449144391
Si	21.8763513888		29.4019238331		23.5874992221
Si	26.8139699362		13.1858444839		18.6091484094
Si	26.8134917851		18.61165879		13.1843486397
Si	26.695782947		18.6359606675		18.6343736987
Si	26.8604305194		18.687291298		24.054074374
Si	26.8596691827		24.0559321119		18.6865478901
Si	26.7773846864		24.1185408442		24.1175253177
Si	13.1834702213		13.1932383414		21.3924861386
Si	13.1436142426		18.6906342826		15.9442061198
Si	13.3084344405		18.6395816644		21.3657488244
Si	13.1924398162		18.6218914745		26.8152241151
Si	13.2294412783		24.1209682341		15.8814597836
Si	13.146622098		24.0602576248		21.3109927254
Si	18.6873728555		13.1437867792		15.9432516198
Si	18.636579681		13.3071400046		21.3630691947
Si	18.6122798188		13.1887111862		26.8135683243
Si	19.1448981979		19.1462835244		10.6014560269
Si	18.6232886247		18.6232401079		15.921110389
Si	18.6378605305		18.6357373335		21.363848613
Si	18.6409651136		18.6381458665		26.6939967903
Si	18.1295367415		23.5895911546		10.5985947816
Si	18.6406232192		24.0921068632		15.9087348958
Si	18.6266095746		24.0795601588		21.3771131417
Si	18.6958322539		24.0585920739		26.857360751
Si	18.1316791122		29.4028628213		16.4123493405
Si	19.1492203097		29.398857521		20.8552758821
Si	24.1193391289		13.2266367739		15.8784184622
Si	24.057482272		13.142178821		21.3094385195
Si	23.5876416562		18.1291826336		10.5970535869
Si	24.0918784422		18.6385366612		15.9073616893
Si	24.0808278808		18.6218442653		21.3757386222
Si	24.0608572295		18.6875079771		26.8553513147
Si	24.0812850633		24.0794244714		15.9192342586
Si	24.0944450157		24.0906899977		21.3599605713
Si	24.1250724236		24.1189641293		26.7720043001
Si	23.592753857		29.4016055039		21.8702550884
Si	29.4025038654		18.1277753225		16.4087798567
Si	29.4002620787		19.1436376253		20.8518018381
Si	29.4047358688		23.5866948529		21.8683666767
C	31.051426373091534		15.817950212362035		18.74985928094586
H	31.353609570904215		16.363853909118973		19.648841158753644
H	31.833262220820195		15.958100286468252		17.99713490786204
Na	30.986260682992114		13.639233930004517		19.26614291793632
C	18.5207200089529		31.032883902196584		21.48340417911774
H	19.346423481505756		31.68657968400449		21.78070797670652
H	17.87230425463984		30.89894714654458		22.354679837531336
Na	17.336772480652918		32.103520060362236		19.91190601906134
C	21.245189981672056		8.950420621719653		15.817875785035822
H	20.534499061895232		9.069477080541823		14.994323768488297
H	20.736114151934657		8.408400109714334		16.620720030230785
Na	22.925585899612773		7.6626250745486875		15.08612979929022
C	13.47354353725682		26.5583272319956		13.472566523120081
H	12.871832510363976		27.23943374185057		14.082100533778016
H	12.787138097477172		25.96611950694842		12.859671017723485
Na	14.719704926551627		27.80360283091798		12.089103305481336
C	22.353640460836857		27.987976567673165		14.893834582378684
H	22.32309105905267		29.015539133966893		15.268902381852964
H	22.00146940934787		28.001496105986682		13.857834538712211
Na	24.495720610646217		27.333163566782037		14.87615505589589
C	29.322887340934642		13.431171547159417		16.356268707068953
H	29.842594387177602		12.773813405555144		17.060029183049235
H	30.082258795069585		13.983146529701283		15.793968136917288
Na	28.211528666957193		12.134196492432725		14.907014552273534
C	31.034054235787764		21.481310085486296		18.512978002319485
H	31.2200564992401		22.506126922096907		18.84860809213568
H	31.0642194830607		21.47897892810793		17.41909138046956
Na	32.72613991366187		20.208114270485897		19.243333036120713
C	12.106865945683975		20.330657526558053		12.105845414407922
H	11.762372866151397		20.88445626187657		11.227138735980033
H	11.222021678311558		19.98450766094649		12.648739705163745
Na	13.211359360614237		18.521864292110852		11.380613498815594
C	13.396455133968205		16.205093498165517		29.13362859403904
H	12.360800323019582		16.461527906091792		28.890411705664746
H	13.528813839562808		16.342499749517476		30.211173958765148
Na	13.682431687703287		14.029263518820422		28.68465051918802
C	23.391939168525475		10.656477471746859		13.296605310822166
H	24.053081505274168		9.90468257361809		13.738407517138556
H	23.959539684338658		11.186713424555702		12.525772769541303
Na	21.712862271708307		9.574814580413797		12.282550990734816
C	15.806647083372521		21.261089670445962		8.949957685277871
H	16.19957232635259		20.26388125763156		8.729324318260927
H	16.119511560599108		21.928293357575665		8.140971667679134
Na	13.57054960980981		21.137233829160177		8.903829393462056
C	22.35188495172223		12.011876372473786		25.104276334765558
H	21.749286238828986		11.206403024447344		25.53506796030914
H	22.81855154607577		12.55657201249255		25.930733996935263
Na	23.988545145456733		11.068488363128484		23.900547763172924
C	21.25333755411255		24.18015815274716		31.04975747861243
H	21.9129499793866		24.944925523421624		31.471108003681238
H	21.19520233325538		23.35790297135407		31.769493562651643
Na	19.206456985340527		25.071691027174193		30.867963444058528
C	16.358868515681024		10.681041523998767		26.568756817241876
H	15.943196507637076		9.823128646469623		26.03145222569405
H	15.532287622976819		11.188169494452854		27.07579583674574
Na	17.74249022673715		9.89242276902244		28.143962016571066
C	19.67291038436394		27.88122960120417		12.091356025434925
H	19.53269918598296		27.626802594975835		11.036319691392226
H	20.73469070899578		27.756898434910813		12.325167105610422
Na	19.170228123512157		30.04974189088311		12.341286003901574
C	18.51414448880113		8.969362985322883		18.517458383296606
H	18.82560375555131		8.148289819674957		19.170394773466686
H	18.894160300155978		8.758151160634847		17.51322690294346
Na	16.276501543937442		8.947922740704088		18.41698765515926
C	21.482437866586373		8.968308363534195		21.481699556185205
H	22.56767451937393		8.988607093039182		21.620779809373587
H	21.25206011222159		8.160252277268336		20.780646940725752
Na	20.553304409412124		8.445839260017024		23.451810480633217
C	26.625792188602496		23.548700037595836		29.33269186442149
H	27.273855164062386		24.25671365529777		28.80712070388593
H	27.267364730846204		22.801030369104218		29.80900904630409
Na	25.567078048562415		24.671067150309945		30.956581156823223
C	17.657356748679867		25.108041975467618		27.98865360837934
H	18.281379738122002		25.762568503967863		28.604838872676627
H	17.057652199785995		24.489009778427974		28.662936124068626
Na	16.250973035675514		26.406298613013526		26.824946362176895
C	29.269364311176094		16.184997608601524		13.527708202358996
H	28.824211884787356		16.013206027656018		12.542913341590285
H	29.44101794058413		15.208132056725558		13.990063090912273
Na	31.266414551647912		17.149594424152998		13.213155630505877
C	10.863120965160176		16.21380701492017		26.61272647448256
H	9.874000324422553		16.6418763385105		26.80217557072667
H	11.379817656693563		16.13218774405053		27.573906031839645
Na	10.566860574373507		14.139499767927543		25.82084313337429
C	8.952603334769075		18.75522647372468		24.192933645908973
H	8.831727674128583		19.823999953175413		23.991423665790133
H	8.844338003175862		18.605850606875883		25.27157574886907
Na	7.267949549997112		17.67746886032915		23.183983621268766
C	14.891503887723497		12.015107825263728		17.650656979870256
H	14.92355414179354		10.987998970293631		18.026840617281646
H	15.235418914662866		11.999708892569876		16.611913197690463
Na	12.750293636465372		12.672995549959014		17.6491072694537
C	19.670657217226122		12.106710953046266		27.894638524590444
H	19.938789956353027		11.177406369082128		27.382787206108656
H	19.14867473483296		11.838912931681017		28.818392726598493
Na	21.572860180074038		13.143703046049485		28.463735429503323
C	25.106774415792017		22.34798755842385		12.007820228897648
H	24.891054542175507		22.128199419789023		10.957747822802567
H	26.17215645938515		22.161756573445373		12.174500879614117
Na	24.738240439946154		24.533015150605713		12.335596265317564
C	18.756749087882476		15.821132842205197		31.05039080840092
H	18.48278599480938		14.776137197997095		31.22481063244599
H	18.339223946667367		16.41546021238997		31.868896184927276
Na	20.98858311440995		15.969066590679688		31.171355613598323
C	27.898752897191187		20.32663698404619		27.89173318119119
H	27.303135907064995		19.766647555934885		28.61915753414934
H	28.618588009041584		20.934268790772812		28.448621246336664
Na	29.056418914434452		18.84466191167264		26.674704308327637
C	18.754133311023722		24.18219528518445		8.949868160915585
H	19.571353826768338		23.55166009607031		8.586453863267703
H	19.129130365400826		25.20821844941822		9.014342912285565
Na	17.129623526989054		24.146798097158815		7.408013757719385
C	29.23025206409492		26.459342638209915		23.862672447781907
H	30.094970892753675		26.85921204123878		23.324286196393217
H	29.60583647173873		25.881718353598444		24.712842934485565
Na	28.07310080791208		28.19567554959169		24.677380365484293
C	12.013527643831775		25.109839372152475		22.347368677242635
H	11.488333650834933		25.84897822078138		21.734719528081737
H	12.57063156252091		25.65182526911621		23.11768668246751
Na	10.46802704674649		23.85851254503113		23.378488978728086
C	27.99294681221769		25.104767259257663		17.64961652877371
H	29.043029275340686		24.889675217299924		17.869971201807864
H	27.82575596693878		26.170241198161744		17.83486183821809
Na	27.6661139896918		24.73419950082682		15.464791629032014
C	21.487264570202875		31.03269938985345		18.517192124182188
H	20.95883425072133		31.337348583971636		17.608652519224993
H	22.554308454949442		30.981426626588732		18.27993325781012
Na	21.205983659263453		32.648745011253794		20.04260275699352
C	23.585278146950156		26.43125175927111		29.484816594512537
H	24.67034567981164		26.45478133566536		29.344928224857988
H	23.387229732726606		26.02649571101222		30.482039079678902
Na	22.8483869873348		28.54628718994418		29.449937576775373
C	27.992617512443715		14.892703990769602		22.344705162355712
H	28.226760031510903		13.948877363691983		21.84284609191446
H	27.536722181227642		14.651938251890654		23.309948460108906
Na	29.92727925896924		15.946617614212157		22.749612560229586
C	10.518644983630324		26.435241739946157		16.421290866337962
H	9.552617523757247		25.92128921420933		16.433025254260116
H	10.773844403147342		26.639804956509288		15.377006199876021
Na	10.2546911854127		28.404408332899873		17.455849381648502
C	8.951536551401952		21.262108524431454		15.807531161154646
H	8.128836479959618		21.7965370100013		16.29234528436095
H	8.824338374696245		20.195548858681143		16.016754537327895
Na	8.742044520048665		21.551738550766967		13.596235718061536
C	20.326990149144045		12.106301900579432		12.104843776954251
H	19.932147727681905		11.252967859093221		12.66467805926887
H	20.89737800157689		11.713110240326928		11.257753856104681
Na	18.58319910476433		13.245742827269986		11.281152592028938
C	14.898603654701134		27.98892619341846		22.3522623192276
H	14.024901069239753		27.463285650694257		22.74955284240013
H	14.537084108029793		28.841498407094598		21.769229253491257
Na	16.05673571765552		28.795749570468114		24.091620293597224
C	24.198561666724753		31.05013931341504		21.257937216243448
H	23.623034311850517		31.87100251113287		21.696623689962355
H	24.108885786457172		31.12539121868399		20.169912076298775
Na	26.351602484019075		31.36933788151048		21.78720795338128
