9

C          0.00000        0.00000        0.00000
C          0.00000       -0.00000        1.20168
C          0.00294       -0.00042        2.67095
C         -1.39651        0.20637        3.22484
H          0.40382       -0.95078        3.04040
H          0.66153        0.79342        3.04037
H         -2.07429       -0.58834        2.89441
H         -1.81553        1.16309        2.89435
H         -1.37672        0.20348        4.31924
