474     

Si	14.5366964035		14.5406029264		20.0119125987
Si	14.5358935115		14.5398291329		25.4679062594
Si	14.5387861885		20.0110707459		14.5382991027
Si	14.6325986156		20.0012461143		20.0010729132
Si	14.5444800001		19.996361116		25.4615379256
Si	14.538032773		25.4657516998		14.5368697569
Si	14.5419208987		25.4648197135		19.9903143685
Si	20.0086361402		14.5384956583		14.5373049666
Si	20.00035645		14.6305599231		19.999474222
Si	19.9921764287		14.5382716515		25.4619365757
Si	20.0007172689		20.0007068045		14.6293558636
Si	20.0023189441		20.0005374729		19.9992441023
Si	20.0044896511		20.0005652703		25.3694447625
Si	19.9924075618		25.4630935243		14.5375779503
Si	20.0036166249		25.3710542998		19.9994297065
Si	20.0159980334		25.4634431561		25.461765722
Si	25.4636385429		14.535753484		14.5337147741
Si	25.4631391142		14.5370711111		19.9882529377
Si	25.4627664809		19.9903152212		14.5360378415
Si	25.3722153293		19.999254971		19.9979907403
Si	25.4660180914		20.0082643342		25.4599536819
Si	25.4652058491		25.4616330918		20.0078129017
Si	25.4689038972		25.463369545		25.4622846794
Si	14.5878610401		11.8359148656		22.7547710855
Si	14.5093415953		17.2823032526		17.2819492168
Si	14.5741154822		17.2535996899		22.7524105007
Si	14.5929810551		17.2535649139		28.1699723221
Si	14.5910651558		22.754798124		11.8319129395
Si	14.5783953775		22.7485808603		17.2536215845
Si	14.5145431731		22.7235551975		22.7184951685
Si	14.593281288		28.1711391928		17.2476885774
Si	20.0837518823		11.8264049597		17.3530024051
Si	19.9147006274		11.8264932375		22.6458318555
Si	20.084359899		17.3546402319		11.8250004612
Si	19.9950166845		17.2707005726		17.2702444642
Si	20.0069722062		17.2706221256		22.7294416335
Si	19.9188608175		17.3540816281		28.173686271
Si	19.9160916116		22.6473480908		11.825476517
Si	20.0072228116		22.730219139		17.2698031733
Si	19.9987380916		22.7299898228		22.7289438841
Si	20.0908932879		22.646578486		28.1737678794
Si	19.9182355742		28.1752290537		17.3536403363
Si	20.0894318278		28.175029771		22.6462550123
Si	25.4095997998		11.8308856483		17.2447776373
Si	25.409416217		17.2470113727		11.829473611
Si	25.4252674743		17.2520973526		17.2504595454
Si	25.4930902562		17.2795102997		22.7172196118
Si	25.4925209523		22.7189288863		17.2787859322
Si	25.4277705797		22.7465484319		22.7454225347
Si	25.4154302621		22.7516505747		28.166786139
Si	25.4144207998		28.1682122974		22.7513829144
Si	11.826629811		17.3587102289		20.0874796316
Si	11.8301935667		17.2588183393		25.4159299524
Si	11.833197657		22.7553185454		14.5908424988
Si	11.8290406652		22.6503624812		19.9149714853
Si	17.3523114687		11.8276947211		20.0850436402
Si	17.2462619769		11.834411227		25.4103651852
Si	17.2804807274		17.2816567317		14.5092756458
Si	17.2699375465		17.2710703491		19.9966926391
Si	17.2552171484		17.2549819434		25.424772685
Si	17.2541542109		22.7486254197		14.5757973441
Si	17.2737282013		22.7311025228		20.0049559642
Si	17.287511424		22.7223700298		25.4902522384
Si	17.2494055209		28.1704026883		14.5905951042
Si	17.3574724039		28.175721926		19.9157037393
Si	22.7518831812		11.8316805313		14.5884358345
Si	22.6461280143		11.8256619408		19.913860951
Si	22.7472809831		17.2530239045		14.5745783294
Si	22.73104627		17.2700979195		20.0038182397
Si	22.7225225429		17.2798708727		25.4894116368
Si	22.7207562592		22.7197206933		14.5081707422
Si	22.7324276113		22.7295634941		19.9936213899
Si	22.7522677621		22.7471896722		25.4230784913
Si	22.6501351678		28.1745814163		20.0839919654
Si	22.7587367533		28.1689044465		25.4087868993
Si	28.1691825075		17.2464917005		14.5871563095
Si	28.1759104513		17.3525036689		19.9123632792
Si	28.1767552215		22.6452231083		20.082131922
Si	28.1729064182		22.7513878606		25.4072618507
Si	11.8280072892		14.5975341773		22.7571967778
Si	11.8275923275		20.0876869593		17.3544999146
Si	11.830643606		19.9225822294		22.646890279
Si	11.8345547832		25.4126449798		17.2472916324
Si	17.2796670609		14.510584725		17.2812699686
Si	17.2529718023		14.5773061188		22.7481791895
Si	17.2483271218		14.5932345471		28.1691488608
Si	17.3539815426		20.0861693366		11.8256834482
Si	17.2720088621		19.9959212071		17.2703456118
Si	17.2737593251		20.005982557		22.7288315862
Si	17.3591917519		19.9175633708		28.1743080736
Si	17.2484000424		25.4114474221		11.831702861
Si	17.2554685505		25.4258737062		17.2526290188
Si	17.2857067217		25.4925053799		22.719168206
Si	22.7517485761		14.5907125897		11.8299870913
Si	22.7474730198		14.5756295632		17.2512473563
Si	22.7206749419		14.5088220773		22.7180891092
Si	22.6464520052		19.9157718028		11.824746563
Si	22.7309300547		20.0050886767		17.2692025326
Si	22.7327044885		19.9944907648		22.7282762272
Si	22.6515776337		20.0841076016		28.1727468747
Si	22.7218892848		25.4909255271		17.2796177896
Si	22.7514494264		25.424208561		22.7461464535
Si	22.7594335635		25.4095480888		28.1681152868
Si	28.1693696069		14.5891530712		17.2440049445
Si	28.1755976878		19.9143706834		17.3509776494
Si	28.1771040443		20.0833871291		22.6435184883
Si	28.1725418273		25.4086999219		22.7504679083
Si	13.1421711989		15.9467054262		18.6915464342
Si	13.2222055074		15.8849943428		24.1280172972
Si	13.1876938852		21.3899098266		13.1872313446
Si	13.3082973689		21.364917367		18.6380649553
Si	13.1485249157		21.3175890112		24.0570673504
Si	13.1899399459		26.8159547241		18.6123997707
Si	19.1435533517		10.6033336888		19.1448212954
Si	18.1270488213		10.6009788915		23.5882992509
Si	18.6882270913		15.944340413		13.1421923003
Si	18.6220064606		15.9225323027		18.6232093408
Si	18.6399778317		15.9098631231		24.0915401692
Si	18.1318069391		16.4140839048		29.4019198963
Si	18.6376668781		21.3642620089		13.3055106571
Si	18.637627659		21.3655133716		18.6349299125
Si	18.6266529759		21.3778687412		24.0779047098
Si	19.1512244692		20.8554724502		29.3979963268
Si	18.6136609389		26.8147262965		13.1868747671
Si	18.63989876		26.6953535143		18.6369238081
Si	18.694062785		26.8582348334		24.0568690393
Si	23.5875505056		10.5985171944		18.1268631727
Si	24.119075687		15.8806324657		13.225113893
Si	24.0920393125		15.9085198636		18.6367567409
Si	24.0817912708		15.9196227767		24.0776163114
Si	24.0575101904		21.3115578006		13.1411595172
Si	24.0805437009		21.3770968431		18.6209656934
Si	24.09489567		21.3606593092		24.089482142
Si	23.5939035419		21.8703116857		29.400073728
Si	24.0596234875		26.8571730771		18.6875719609
Si	24.1243037597		26.7728109973		24.1181622963
Si	29.402696933		16.4107413592		18.1254476462
Si	29.4000280997		20.8537398882		19.1420362143
Si	29.404989659		21.8696896488		23.5850516772
Si	10.5984697344		16.4214577479		21.8756631175
Si	10.6003653645		21.8742118097		16.4127527018
Si	10.6049286325		20.8604174995		20.8557357166
Si	16.409339096		10.6024917232		21.8722557912
Si	15.9201085536		15.9221695635		15.921203076
Si	15.9074289452		15.9109676359		21.3646121533
Si	15.8817098056		15.8848997503		26.7747360971
Si	16.4124410718		21.8730215777		10.5986398816
Si	15.9105215634		21.3626444138		15.9090476693
Si	15.9250504818		21.3792588139		21.3772973017
Si	15.9503226671		21.3155645103		26.8575154119
Si	15.8827893361		26.7750948012		15.8809361068
Si	15.9476013757		26.8590217333		21.3118202534
Si	21.8701719658		10.5989966114		16.4104926307
Si	20.8541491202		10.6026402802		20.854154787
Si	21.8704593231		16.4126848677		10.597151264
Si	21.3612649532		15.9092319096		15.9081011137
Si	21.3787524525		15.9215820789		21.3766596861
Si	21.3141785876		15.9431114038		26.8564265362
Si	20.8551292759		20.8559149358		10.6013340928
Si	21.3789049267		21.3778371611		15.9205649175
Si	21.3677820614		21.3647163396		21.3636854702
Si	21.3684332404		21.3632354194		26.6933060834
Si	21.3135758919		26.857892104		15.9430127357
Si	21.3671513303		26.6947342073		21.3626822689
Si	21.3948632039		26.8139144492		26.8132274887
Si	26.7738922618		15.8797463666		15.8776122653
Si	26.8590989396		15.9421479993		21.3086535623
Si	26.8585728264		21.3108000941		15.9410751953
Si	26.6969709287		21.3621719959		21.3608650781
Si	26.8179211965		21.3864509628		26.8109014805
Si	26.8170784187		26.8125496918		21.3860726734
Si	10.6038042965		19.1496385305		19.1466411923
Si	10.6012680558		18.1395811413		23.59086599
Si	10.6007720907		23.5917166142		18.1288433115
Si	15.9414875691		13.1450725488		18.6900385231
Si	15.8790177672		13.2305738915		24.1213486779
Si	15.9436213142		18.6901285152		13.1427137803
Si	15.9230821703		18.6237783351		18.6228000936
Si	15.9116790836		18.6405361264		24.0909721402
Si	16.4162549579		18.1322739103		29.4025504211
Si	15.88182178		24.1212312229		13.2271763705
Si	15.9121249219		24.092717126		18.6386521864
Si	15.9262172445		24.0820230311		24.0794887318
Si	16.4153319985		29.4031799571		18.1295753756
Si	21.3868041173		13.187319588		13.1854894693
Si	21.3630498636		13.3061343213		18.6357817711
Si	21.3120251107		13.1426844271		24.0556750499
Si	21.3633133047		18.6374608268		13.3048248642
Si	21.3660112154		18.635383187		18.6343625442
Si	21.3807384772		18.6222763639		24.0775088905
Si	20.8603938129		19.144766825		29.3969410207
Si	21.3126599253		24.0574747288		13.142078386
Si	21.3801296634		24.0788172267		18.6217167457
Si	21.366052326		24.0910504247		24.0902792096
Si	21.8777336255		23.5877537776		29.4008831346
Si	20.8586122963		29.3985754613		19.1449144391
Si	21.8763513888		29.4019238331		23.5874992221
Si	26.8139699362		13.1858444839		18.6091484094
Si	26.8134917851		18.61165879		13.1843486397
Si	26.695782947		18.6359606675		18.6343736987
Si	26.8604305194		18.687291298		24.054074374
Si	26.8596691827		24.0559321119		18.6865478901
Si	26.7773846864		24.1185408442		24.1175253177
Si	13.1834702213		13.1932383414		21.3924861386
Si	13.1436142426		18.6906342826		15.9442061198
Si	13.3084344405		18.6395816644		21.3657488244
Si	13.1924398162		18.6218914745		26.8152241151
Si	13.2294412783		24.1209682341		15.8814597836
Si	13.146622098		24.0602576248		21.3109927254
Si	18.6873728555		13.1437867792		15.9432516198
Si	18.636579681		13.3071400046		21.3630691947
Si	18.6122798188		13.1887111862		26.8135683243
Si	19.1448981979		19.1462835244		10.6014560269
Si	18.6232886247		18.6232401079		15.921110389
Si	18.6378605305		18.6357373335		21.363848613
Si	18.6409651136		18.6381458665		26.6939967903
Si	18.1295367415		23.5895911546		10.5985947816
Si	18.6406232192		24.0921068632		15.9087348958
Si	18.6266095746		24.0795601588		21.3771131417
Si	18.6958322539		24.0585920739		26.857360751
Si	18.1316791122		29.4028628213		16.4123493405
Si	19.1492203097		29.398857521		20.8552758821
Si	24.1193391289		13.2266367739		15.8784184622
Si	24.057482272		13.142178821		21.3094385195
Si	23.5876416562		18.1291826336		10.5970535869
Si	24.0918784422		18.6385366612		15.9073616893
Si	24.0808278808		18.6218442653		21.3757386222
Si	24.0608572295		18.6875079771		26.8553513147
Si	24.0812850633		24.0794244714		15.9192342586
Si	24.0944450157		24.0906899977		21.3599605713
Si	24.1250724236		24.1189641293		26.7720043001
Si	23.592753857		29.4016055039		21.8702550884
Si	29.4025038654		18.1277753225		16.4087798567
Si	29.4002620787		19.1436376253		20.8518018381
Si	29.4047358688		23.5866948529		21.8683666767
N	21.43318695524349		30.89212958954778		18.57118974266974
H	20.827104009339983		31.65444294916351		18.898676714221747
H	21.441465764170072		30.897629660013486		17.5437674321043
H	22.388385312079144		31.06427237294732		18.908155078308166
N	17.737580978625843		14.985704248949649		12.109095657467229
H	18.335212500896723		14.489110352342953		11.436833076669245
H	17.07633827202141		15.574645998895633		11.587942041118842
H	17.204919232066977		14.29279994003623		12.649223196704098
N	30.77472837993373		18.942406129443214		15.822796469485214
H	30.796194299609315		19.90458078051443		16.182609014053167
H	30.75521249651626		18.97624211027763		14.796068827705072
H	31.63306132826325		18.461797065967016		16.11921197872264
N	24.146449166963485		30.908329953456757		21.310609721375194
H	25.173402945242117		30.91931343200762		21.279767987017884
H	23.82882479997835		31.657771560897416		21.937624419954147
H	23.787587405328264		31.096077356469408		20.36638950082383
N	22.26243464281709		12.109150183624429		25.014074073701853
H	22.865543475761122		11.528506671288362		24.41840742253954
H	21.66096311747506		11.491678079330091		25.57323022212647
H	22.85663941316909		12.653681382037075		25.651246845441367
N	15.864111234857038		18.692237402819558		30.909725990219123
H	15.950847558709123		19.71474477982189		30.96131461493851
H	16.420137001835784		18.276975931306055		31.667412370215583
H	14.878224926274388		18.438908400651837		31.04913646116726
N	14.969831468152671		25.099266629689126		25.049304027580575
H	14.007643407993452		24.7419427424474		25.096417598804823
H	14.948820377218784		26.04777730381032		24.65486590970158
H	15.348820449006858		25.148588337421334		26.002990243134455
N	9.093371288012538		21.31476257047606		15.85959322916715
H	8.54273980264054		22.09534496090399		15.48117281326594
H	8.568599178181191		20.88721983402695		16.632585360403144
H	9.218947141419363		20.61266068675774		15.120089120915996
N	18.57767370807252		21.429363193995602		30.89188017054282
H	18.863077542185696		22.40680195807243		31.02922654309582
H	18.96138763139436		20.864379829821587		31.65950821651012
H	17.55213677339807		21.378639025375858		30.92770935608152
N	10.944463948078345		13.505048221931952		23.714184552895976
H	10.315772356108612		14.015798175702862		24.346313716128915
H	11.58323718932105		12.931826181490198		24.279056779442904
H	10.380514857921694		12.882329985524386		23.122774290931464
N	15.858758394204992		21.31372897429577		9.091779809692678
H	16.65516200997654		21.08115113960254		8.485681844265129
H	15.295437132707942		22.038388800837577		8.630008561300388
H	15.279664636046876		20.47332955258559		9.209940325312331
N	21.305670773565552		30.908779053069658		24.129450309787643
H	22.08642319482026		31.56980327785769		24.225255022867405
H	20.848101876971324		30.8064621547161		25.043702655084527
H	20.62624336873158		31.297381929191445		23.463906259832683
N	12.202421924420952		27.80398273939286		19.581218019005924
H	11.6458224840972		27.227131859108862		20.22398239033251
H	11.561947964760963		28.350773138651686		18.992568072114032
H	12.774764436979698		28.453310960705945		20.134733678697977
N	22.26417254092831		27.89076500090558		14.984086466535356
H	21.685683780854802		28.645940779452697		14.595800218949412
H	22.683961014405508		27.366049799087477		14.206817537388776
H	23.01806880335891		28.30892223571421		15.542985051853275
N	26.36554517209905		29.18988476880613		23.721716769106525
H	27.255244176172987		29.397705915070894		23.25166149000092
H	26.567642381393867		28.736831127209392		24.621491468423624
H	25.875171111567624		30.0744707941409		23.902336592881092
N	19.57961400015721		12.199786241919705		27.801643238543953
H	19.401646827895696		11.209319670396901		27.59425575484953
H	19.366195520093655		12.37131617594321		28.791959060795246
H	20.575596830709323		12.394886011904092		27.64184036874043
N	21.29895187277984		9.092233610079251		15.868853578211235
H	20.480242084148138		8.804955682871253		16.41920945093153
H	22.030542951585463		8.378146384493414		15.971563467545895
H	21.027545710759004		9.144266267694306		14.879301167290704
N	25.038883508813424		14.927000826831371		25.071938247481796
H	25.490450293985212		15.488908174098292		25.80409498187483
H	25.7688325726173		14.46593029696666		24.51490707740052
H	24.462950044123936		14.204349170321024		25.521001610264392
N	16.43708605907351		13.535323161235176		29.224000242656217
H	15.559771665099115		13.961196829630323		29.547507560646082
H	17.024242352051417		13.331397206128656		30.04214270344794
H	16.21728972899504		12.651198279906168		28.749031355570963
N	13.656601596072365		23.50940677265035		10.628856979486814
H	13.561630402620313		22.89089262634982		9.813917328138064
H	14.105560314265068		24.38303868989818		10.327362806699593
H	12.718446068844651		23.728563297316867		10.985812579846558
N	27.89546056451724		25.014544880990336		17.73881492544694
H	28.70335664019832		25.320155510724405		18.29524280576267
H	27.39684868683323		25.846451079227148		17.399678276782126
H	28.23699513636046		24.483355544980988		16.92839854990544
N	29.174725016236216		16.27630892833473		13.618843523403385
H	29.109428601166403		15.294029423133933		13.91307007547086
H	30.152080734031067		16.580945679730142		13.706408609442054
H	28.897350652116046		16.342529561326725		12.631796935802235
N	13.499382094925778		16.295284587691064		29.050733430861488
H	12.661821987563574		16.84091109408026		29.288411141597976
H	13.93618292171139		15.968361162171758		29.921377735538275
H	13.212651273507756		15.476850583144817		28.49979433036912
N	27.805778127239257		20.417803777917484		27.79875841123926
H	28.309659322080925		21.001907903590265		28.477457183860054
H	28.49325567928841		19.912841898307377		27.225972666593734
H	27.239335447257233		19.73177501264526		28.31265519047985
N	10.62997801832583		23.51009322690796		13.656723833285087
H	10.489731146568209		22.99683927468956		12.777743112453056
H	10.907258062921954		24.47391211238187		13.433420616620856
H	9.739267321038326		23.53482715439223		14.168197549881366
N	30.896216826753296		18.570584959880946		21.42077462693345
H	31.26165478205131		19.196442293896386		22.1491039551818
H	31.576017758268236		18.53005524535338		20.651409024991352
H	30.793741575378515		17.628758728352782		21.8183231757437
N	14.962993612919163		14.904363675426081		14.952697957517099
H	15.559182834560827		14.338224494163645		14.33645875758106
H	14.32724728505158		15.463894094180882		14.370935367802907
H	14.402335532882574		14.27285518902574		15.537883590537968
N	15.855455369882426		9.095717179130002		21.312931832045052
H	15.43573454569959		9.196313821135192		20.38050453865186
H	15.145862713168713		8.71898693297617		21.953437863922073
H	16.63221143113081		8.425926574388416		21.252821572406635
N	23.514237752674877		26.34336327148865		29.371551965892102
H	23.158331521578386		26.08093320118055		30.299003918806527
H	23.323968467239627		27.341195991744822		29.217205423636948
H	24.531041641075632		26.196845583372394		29.356548772826375
N	9.094423955933024		18.70226773545159		24.141142879809276
H	9.21930304912945		19.297313826967414		24.96941292825614
H	8.49113553555678		17.90995663074472		24.394088701870277
H	8.625913840422331		19.251367943719817		23.410000001061253
N	21.43566394997805		18.570516670434504		30.890025421987385
H	20.772345833806664		18.804408755967916		31.639031083637335
H	22.342985477136658		19.00001077906769		31.109109539859848
H	21.55345147317286		17.550245476358846		30.86253967806316
N	17.74392397717243		27.891164408701545		25.016187932227357
H	17.445227837936326		27.405686850678528		25.871055213833955
H	16.907787219540534		28.187004145290413		24.497488051282843
H	18.277754551144465		28.727469409846567		25.283024098352776
N	18.57478455095265		30.892322493061393		21.429371637438795
H	17.835463478373583		31.24890531320209		20.811343356434566
H	19.338754540228		31.57880996425314		21.45730371726448
H	18.190121325285645		30.79044467790013		22.376598004152385
N	13.565112503772362		26.464342239978777		13.56411948946674
H	13.381827745767897		26.00950739717928		12.661214247839025
H	14.038363611599852		27.35967365870038		13.390595908100938
H	12.666566988171567		26.651950388787032		14.025640686265373
N	29.239335992694485		23.480021234788328		26.51262213977431
H	29.64740008459589		24.329760841876706		26.103804076149462
H	30.00041128234222		22.832042459654126		26.750494593335443
H	28.744266084401477		23.736010339517428		27.37573165794842
N	27.894255228105507		22.258078876487243		14.981895925696838
H	27.527032487794006		22.326323482788304		14.024714623743584
H	28.829556108728717		21.834329287093155		14.945236112634205
H	27.97813640578013		23.20577862628621		15.369725538365708
N	26.45266698350598		13.579873985628147		13.534656653535999
H	25.874887962426136		12.968822838334646		12.944323010338099
H	27.07252253678203		12.99313094728663		14.106676840007252
H	27.030824812095734		14.172768272135011		12.926550933724137
N	25.016515127586253		22.258832310439		12.105311780579571
H	24.47600869774324		22.535701753075266		11.276516255053133
H	25.839127755185476		21.72558062819079		11.797665064371262
H	25.336950730667134		23.107874639999537		12.587007559150042
N	9.089807845224657		15.883269179885449		21.306196376233814
H	8.63756425171547		15.28684590804834		22.010086229151877
H	9.210455267970985		15.338836947933133		20.443217154064424
H	8.474031432617867		16.68135120931096		21.107532941789614
N	26.359676454192297		16.27635198909213		10.807306382692795
H	26.22172809694447		16.55263664448999		9.827335489235079
H	26.095562197942844		15.28875675746682		10.91023699921067
H	27.35558232770383		16.375792743636303		11.039396243826182
N	12.10749364210494		17.74325116421461		14.985603319768558
H	11.845399547488675		18.255394760296262		14.134297537655085
H	11.25246920698308		17.5144790498066		15.507419311008604
H	12.569789859961434		16.867284470609366		14.712569924650158
N	23.336880588970597		10.757570208052506		13.407730517160044
H	22.782194090351524		10.84090072300942		12.546867679289381
H	23.27356267684826		9.789673801959555		13.746644640171787
H	24.31871877511688		10.964594200690263		13.187010062971277
N	23.729956786054757		29.19112500609292		26.358416709026603
H	23.31098328741145		29.31455459529244		27.288434050824392
H	23.816404181152777		30.11268582345868		25.912380946472833
H	24.66979132342841		28.79190226244937		26.47206053647607
N	24.14057617303909		9.091424497859101		18.68617901834236
H	23.913334704262514		8.977786517199021		19.681746010723973
H	25.15942145848133		9.023243138610244		18.572157177087703
H	23.699397850587086		8.327562349740287		18.15943526406544
N	26.514741701924326		10.764672756418168		16.515496179045368
H	27.341696874165013		11.279903285581145		16.18932359125967
H	26.079072143390658		10.299201772734435		15.709751683056984
H	26.81813802134288		10.046722112666869		17.1848841253817
H	27.6626321236509		12.313945469900478		19.451742381000624
H	17.86951841103667		24.8936382321366		27.75752926117281
H	27.673210364997708		19.45465363095324		12.323742073663643
H	21.355199240802477		21.355540920266044		9.30106338796628
H	16.54016395399458		10.916676194504396		26.332096161233324
H	15.112915017055741		27.758085497265228		22.13969888642411
H	24.069374948110614		18.616391849258907		9.285199854336039
H	27.676996028019083		27.672763314065495		20.542879795553045
H	24.914238509045635		24.96565852135111		15.075920695369968
H	24.075928293983644		21.382959057940884		30.711767119991812
H	12.320358250002807		12.334862238258072		20.550685574001502
H	26.3785139455536		23.385861975283785		29.09449607105581
H	23.586954132786325		13.639617266774904		11.06301292955119
H	18.62907273490541		15.942273381875102		30.713606428509333
H	15.108428073572778		17.865739652840684		12.240918207884324
H	10.787486770639182		26.22632412228189		16.5900437110173
H	18.628948368813766		30.714706479223935		15.94097952433487
H	20.54351128242322		12.327154976504064		12.325620853885104
H	29.01416072539488		26.24469520154445		23.635447864446892
H	27.761038449174567		15.10710653014678		22.13303870643035
H	18.62652756026081		24.061125624097304		9.286704782345733
H	30.680756619213646		24.133687742430137		21.355560842765495
H	9.289207776685977		24.063388411623006		18.626562876838427
H	13.75738827574143		29.061347491088824		16.411499569032273
H	13.66646956112669		10.917927177827522		23.460983764211957
H	24.89076839861507		27.66611860490537		17.768221500101067
H	20.552117295336203		27.67397705451511		27.67373411188053
H	9.305066801454485		21.360796965600976		21.35611518270098
H	15.11587529390173		22.140391614030747		27.75960067966223
H	19.45650458367776		27.66334182927536		12.315171682334242
H	11.060694937517775		16.42730395215906		26.36821965814311
H	12.245020059199478		24.89540869258584		22.13563595589844
H	13.66935617176555		13.706147692298094		26.330743610493396
H	21.380902342890632		24.059129301910644		30.712890677147527
H	16.413068539567146		29.060610959883284		13.754850115067699
H	18.644357255033785		18.64692659322596		9.301263187432314
H	29.087222427529714		13.667748417662333		16.53763417493121
H	22.193112603248824		24.89130737085138		12.293593732666565
H	12.248121377006033		22.143254912313353		24.89250094276151
H	12.239082703534216		15.112436358947143		17.867637280856616
H	9.303324225991009		18.6502849675209		18.646843627931172
H	27.666428408219907		17.764966868487395		24.88478795276352
H	16.411905920327197		26.24749754516958		10.941928858540393
H	22.141510277879377		15.107935602682554		27.755539240752274
H	18.642733396275094		9.303184957001003		18.645629300823106
H	24.892199091734977		12.24249024880693		22.13660736799269
H	15.106016682843427		12.24596083329802		17.863003746766655
H	30.716928248133		21.382300910756797		24.066372107238415
H	21.35407780012034		9.302204131455166		21.353491485061348
H	21.372867571583797		15.941437950142715		9.28538573940508
H	17.859295556784545		12.244815999504254		15.1086621850446
H	15.933910937667036		30.7149894508668		18.617212140261735
H	30.700220939167682		21.35309681937404		18.641495271433783
H	26.331021506131997		26.33259129903564		26.293913665595515
H	24.895822966075542		17.862309652543953		27.756617060135138
H	12.32768025590768		20.54706391043759		12.326773722726735
H	30.71458917565348		15.939058081070867		18.62229131255692
H	12.335767194365543		19.467315457899865		27.67648499734857
H	18.62298817715236		9.288685764569866		24.05981903238183
