339

Si        14.53670       14.54060       20.01191
Si        14.53589       14.53983       25.46791
Si        14.53879       20.01107       14.53830
Si        14.63260       20.00125       20.00107
Si        14.54448       19.99636       25.46154
Si        14.53803       25.46575       14.53687
Si        14.54192       25.46482       19.99031
Si        20.00864       14.53850       14.53730
Si        20.00036       14.63056       19.99947
Si        19.99218       14.53827       25.46194
Si        20.00072       20.00071       14.62936
Si        20.00232       20.00054       19.99924
Si        20.00449       20.00057       25.36944
Si        19.99241       25.46309       14.53758
Si        20.00362       25.37105       19.99943
Si        20.01600       25.46344       25.46177
Si        25.46364       14.53575       14.53371
Si        25.46314       14.53707       19.98825
Si        25.46277       19.99032       14.53604
Si        25.37222       19.99925       19.99799
Si        25.46602       20.00826       25.45995
Si        25.46521       25.46163       20.00781
Si        25.46890       25.46337       25.46228
Si        14.58786       11.83591       22.75477
Si        14.50934       17.28230       17.28195
Si        14.57412       17.25360       22.75241
Si        14.59298       17.25356       28.16997
Si        14.59107       22.75480       11.83191
Si        14.57840       22.74858       17.25362
Si        14.51454       22.72356       22.71850
Si        14.59328       28.17114       17.24769
Si        20.08375       11.82640       17.35300
Si        19.91470       11.82649       22.64583
Si        20.08436       17.35464       11.82500
Si        19.99502       17.27070       17.27024
Si        20.00697       17.27062       22.72944
Si        19.91886       17.35408       28.17369
Si        19.91609       22.64735       11.82548
Si        20.00722       22.73022       17.26980
Si        19.99874       22.72999       22.72894
Si        20.09089       22.64658       28.17377
Si        19.91824       28.17523       17.35364
Si        20.08943       28.17503       22.64626
Si        25.40960       11.83089       17.24478
Si        25.40942       17.24701       11.82947
Si        25.42527       17.25210       17.25046
Si        25.49309       17.27951       22.71722
Si        25.49252       22.71893       17.27879
Si        25.42777       22.74655       22.74542
Si        25.41543       22.75165       28.16679
Si        25.41442       28.16821       22.75138
Si        11.82663       17.35871       20.08748
Si        11.83019       17.25882       25.41593
Si        11.83320       22.75532       14.59084
Si        11.82904       22.65036       19.91497
Si        17.35231       11.82769       20.08504
Si        17.24626       11.83441       25.41037
Si        17.28048       17.28166       14.50928
Si        17.26994       17.27107       19.99669
Si        17.25522       17.25498       25.42477
Si        17.25415       22.74863       14.57580
Si        17.27373       22.73110       20.00496
Si        17.28751       22.72237       25.49025
Si        17.24941       28.17040       14.59060
Si        17.35747       28.17572       19.91570
Si        22.75188       11.83168       14.58844
Si        22.64613       11.82566       19.91386
Si        22.74728       17.25302       14.57458
Si        22.73105       17.27010       20.00382
Si        22.72252       17.27987       25.48941
Si        22.72076       22.71972       14.50817
Si        22.73243       22.72956       19.99362
Si        22.75227       22.74719       25.42308
Si        22.65014       28.17458       20.08399
Si        22.75874       28.16890       25.40879
Si        28.16918       17.24649       14.58716
Si        28.17591       17.35250       19.91236
Si        28.17676       22.64522       20.08213
Si        28.17291       22.75139       25.40726
Si        11.82801       14.59753       22.75720
Si        11.82759       20.08769       17.35450
Si        11.83064       19.92258       22.64689
Si        11.83455       25.41264       17.24729
Si        17.27967       14.51058       17.28127
Si        17.25297       14.57731       22.74818
Si        17.24833       14.59323       28.16915
Si        17.35398       20.08617       11.82568
Si        17.27201       19.99592       17.27035
Si        17.27376       20.00598       22.72883
Si        17.35919       19.91756       28.17431
Si        17.24840       25.41145       11.83170
Si        17.25547       25.42587       17.25263
Si        17.28571       25.49251       22.71917
Si        22.75175       14.59071       11.82999
Si        22.74747       14.57563       17.25125
Si        22.72067       14.50882       22.71809
Si        22.64645       19.91577       11.82475
Si        22.73093       20.00509       17.26920
Si        22.73270       19.99449       22.72828
Si        22.65158       20.08411       28.17275
Si        22.72189       25.49093       17.27962
Si        22.75145       25.42421       22.74615
Si        22.75943       25.40955       28.16812
Si        28.16937       14.58915       17.24400
Si        28.17560       19.91437       17.35098
Si        28.17710       20.08339       22.64352
Si        28.17254       25.40870       22.75047
Si        13.14217       15.94671       18.69155
Si        13.22221       15.88499       24.12802
Si        13.18769       21.38991       13.18723
Si        13.30830       21.36492       18.63806
Si        13.14852       21.31759       24.05707
Si        13.18994       26.81595       18.61240
Si        19.14355       10.60333       19.14482
Si        18.12705       10.60098       23.58830
Si        18.68823       15.94434       13.14219
Si        18.62201       15.92253       18.62321
Si        18.63998       15.90986       24.09154
Si        18.13181       16.41408       29.40192
Si        18.63767       21.36426       13.30551
Si        18.63763       21.36551       18.63493
Si        18.62665       21.37787       24.07790
Si        19.15122       20.85547       29.39800
Si        18.61366       26.81473       13.18687
Si        18.63990       26.69535       18.63692
Si        18.69406       26.85823       24.05687
Si        23.58755       10.59852       18.12686
Si        24.11908       15.88063       13.22511
Si        24.09204       15.90852       18.63676
Si        24.08179       15.91962       24.07762
Si        24.05751       21.31156       13.14116
Si        24.08054       21.37710       18.62097
Si        24.09490       21.36066       24.08948
Si        23.59390       21.87031       29.40007
Si        24.05962       26.85717       18.68757
Si        24.12430       26.77281       24.11816
Si        29.40270       16.41074       18.12545
Si        29.40003       20.85374       19.14204
Si        29.40499       21.86969       23.58505
Si        10.59847       16.42146       21.87566
Si        10.60037       21.87421       16.41275
Si        10.60493       20.86042       20.85574
Si        16.40934       10.60249       21.87226
Si        15.92011       15.92217       15.92120
Si        15.90743       15.91097       21.36461
Si        15.88171       15.88490       26.77474
Si        16.41244       21.87302       10.59864
Si        15.91052       21.36264       15.90905
Si        15.92505       21.37926       21.37730
Si        15.95032       21.31556       26.85752
Si        15.88279       26.77509       15.88094
Si        15.94760       26.85902       21.31182
Si        21.87017       10.59900       16.41049
Si        20.85415       10.60264       20.85415
Si        21.87046       16.41268       10.59715
Si        21.36126       15.90923       15.90810
Si        21.37875       15.92158       21.37666
Si        21.31418       15.94311       26.85643
Si        20.85513       20.85591       10.60133
Si        21.37890       21.37784       15.92056
Si        21.36778       21.36472       21.36369
Si        21.36843       21.36324       26.69331
Si        21.31358       26.85789       15.94301
Si        21.36715       26.69473       21.36268
Si        21.39486       26.81391       26.81323
Si        26.77389       15.87975       15.87761
Si        26.85910       15.94215       21.30865
Si        26.85857       21.31080       15.94108
Si        26.69697       21.36217       21.36087
Si        26.81792       21.38645       26.81090
Si        26.81708       26.81255       21.38607
Si        10.60380       19.14964       19.14664
Si        10.60127       18.13958       23.59087
Si        10.60077       23.59172       18.12884
Si        15.94149       13.14507       18.69004
Si        15.87902       13.23057       24.12135
Si        15.94362       18.69013       13.14271
Si        15.92308       18.62378       18.62280
Si        15.91168       18.64054       24.09097
Si        16.41625       18.13227       29.40255
Si        15.88182       24.12123       13.22718
Si        15.91212       24.09272       18.63865
Si        15.92622       24.08202       24.07949
Si        16.41533       29.40318       18.12958
Si        21.38680       13.18732       13.18549
Si        21.36305       13.30613       18.63578
Si        21.31203       13.14268       24.05568
Si        21.36331       18.63746       13.30482
Si        21.36601       18.63538       18.63436
Si        21.38074       18.62228       24.07751
Si        20.86039       19.14477       29.39694
Si        21.31266       24.05747       13.14208
Si        21.38013       24.07882       18.62172
Si        21.36605       24.09105       24.09028
Si        21.87773       23.58775       29.40088
Si        20.85861       29.39858       19.14491
Si        21.87635       29.40192       23.58750
Si        26.81397       13.18584       18.60915
Si        26.81349       18.61166       13.18435
Si        26.69578       18.63596       18.63437
Si        26.86043       18.68729       24.05407
Si        26.85967       24.05593       18.68655
Si        26.77738       24.11854       24.11753
Si        13.18347       13.19324       21.39249
Si        13.14361       18.69063       15.94421
Si        13.30843       18.63958       21.36575
Si        13.19244       18.62189       26.81522
Si        13.22944       24.12097       15.88146
Si        13.14662       24.06026       21.31099
Si        18.68737       13.14379       15.94325
Si        18.63658       13.30714       21.36307
Si        18.61228       13.18871       26.81357
Si        19.14490       19.14628       10.60146
Si        18.62329       18.62324       15.92111
Si        18.63786       18.63574       21.36385
Si        18.64097       18.63815       26.69400
Si        18.12954       23.58959       10.59859
Si        18.64062       24.09211       15.90873
Si        18.62661       24.07956       21.37711
Si        18.69583       24.05859       26.85736
Si        18.13168       29.40286       16.41235
Si        19.14922       29.39886       20.85528
Si        24.11934       13.22664       15.87842
Si        24.05748       13.14218       21.30944
Si        23.58764       18.12918       10.59705
Si        24.09188       18.63854       15.90736
Si        24.08083       18.62184       21.37574
Si        24.06086       18.68751       26.85535
Si        24.08129       24.07942       15.91923
Si        24.09445       24.09069       21.35996
Si        24.12507       24.11896       26.77200
Si        23.59275       29.40161       21.87026
Si        29.40250       18.12778       16.40878
Si        29.40026       19.14364       20.85180
Si        29.40474       23.58669       21.86837
H         13.71798       13.71839       26.28807
H         13.71803       26.28583       13.71745
H         26.28298       13.71573       13.71357
H         26.28894       26.28334       26.28179
H         13.58996       10.95401       23.24755
H         13.59387       16.76079       29.05051
H         13.59296       23.24884       10.95094
H         13.59581       29.05300       16.75395
H         26.40721       10.94927       16.75088
H         26.40709       16.75289       10.94806
H         26.41385       23.24509       29.04774
H         26.41262       29.04932       23.24499
H         10.94654       16.77148       26.41496
H         10.95215       23.24962       13.59293
H         16.75242       10.95311       26.40828
H         16.75569       29.05197       13.59285
H         23.24529       10.95039       13.59030
H         23.25310       29.05047       26.40620
H         29.05022       16.75284       13.58891
H         29.05448       23.24497       26.40506
H         10.94520       13.59973       23.24857
H         10.95418       26.41114       16.75297
H         16.75391       13.59529       29.05009
H         16.75467       26.40958       10.95059
H         23.24503       13.59257       10.94863
H         23.25359       26.40720       29.04953
H         29.05039       13.59103       16.75008
H         29.05412       26.40653       23.24398
H         12.27237       15.14085       17.91024
H         12.35284       20.60060       12.35272
H         12.28078       22.09975       24.86431
H         12.35505       27.65022       19.40193
H         18.71269        9.32035       18.71504
H         18.52922        9.30539       24.00796
H         17.90600       15.13839       12.27330
H         18.53455       15.99419       30.69725
H         18.72222       21.28499       30.68169
H         19.40284       27.64946       12.35212
H         17.91182       27.72607       24.86394
H         24.00735        9.30308       18.52938
H         24.90183       15.09949       24.89695
H         24.86373       22.09357       12.27232
H         24.01376       21.46726       30.69532
H         24.86574       27.72581       17.90524
H         30.69814       15.99077       18.52774
H         30.68321       21.28356       18.71179
H         30.70044       21.46673       24.00438
H          9.30186       16.00414       21.47435
H          9.30484       21.47145       15.99347
H          9.32168       21.29015       21.28586
H         15.98780        9.30765       21.46965
H         15.09995       15.10288       15.10114
H         15.99247       21.47056        9.30324
H         15.14557       22.09824       27.72711
H         15.14136       27.72692       22.09485
H         21.46698        9.30379       15.99065
H         21.28413        9.31939       21.28401
H         21.46760       15.99315        9.30174
H         22.09645       15.13661       27.72476
H         21.28491       21.28592        9.31806
H         22.09565       27.72662       15.13675
H         20.60668       27.64868       27.64889
H         27.72797       15.13569       22.09037
H         27.72720       22.09288       15.13470
H         27.65261       20.59670       27.64516
H         27.65168       27.64712       20.59656
H          9.32040       18.72001       18.71687
H          9.30644       18.54464       24.01009
H          9.30534       24.01174       18.53115
H         15.13392       12.27731       17.90823
H         15.13735       17.90819       12.27387
H         15.99745       18.53469       30.69834
H         15.10633       24.90062       24.90051
H         15.99575       30.69845       18.53284
H         20.59712       12.35295       12.35085
H         22.09419       12.27355       24.86142
H         21.29106       18.71420       30.67973
H         22.09475       24.86371       12.27334
H         21.47558       24.00751       30.69644
H         21.28867       30.68175       18.71491
H         21.47377       30.69728       24.00746
H         27.64896       12.35103       19.39800
H         27.64803       19.40096       12.34951
H         27.72926       17.90482       24.85984
H         27.72823       24.86209       17.90418
H         12.34559       12.36020       20.60483
H         12.27495       17.90838       15.13804
H         12.36180       19.41516       27.65018
H         12.27755       24.86590       22.09334
H         17.90445       12.27562       15.13720
H         19.40104       12.35373       27.64847
H         18.71470       18.71653        9.31824
H         18.53210       24.00947        9.30320
H         17.91497       24.86515       27.72692
H         18.53451       30.69819       15.99253
H         18.71944       30.68201       21.28564
H         24.86396       12.27338       22.09121
H         24.00727       18.53196        9.30165
H         24.86720       17.90482       27.72346
H         24.90108       24.89923       15.09932
H         24.01280       30.69689       21.46750
H         30.69785       18.53036       15.98878
H         30.68355       18.71343       21.28134
H         30.70007       24.00630       21.46533
