564     

Si	14.5366964035		14.5406029264		20.0119125987
Si	14.5358935115		14.5398291329		25.4679062594
Si	14.5387861885		20.0110707459		14.5382991027
Si	14.6325986156		20.0012461143		20.0010729132
Si	14.5444800001		19.996361116		25.4615379256
Si	14.538032773		25.4657516998		14.5368697569
Si	14.5419208987		25.4648197135		19.9903143685
Si	20.0086361402		14.5384956583		14.5373049666
Si	20.00035645		14.6305599231		19.999474222
Si	19.9921764287		14.5382716515		25.4619365757
Si	20.0007172689		20.0007068045		14.6293558636
Si	20.0023189441		20.0005374729		19.9992441023
Si	20.0044896511		20.0005652703		25.3694447625
Si	19.9924075618		25.4630935243		14.5375779503
Si	20.0036166249		25.3710542998		19.9994297065
Si	20.0159980334		25.4634431561		25.461765722
Si	25.4636385429		14.535753484		14.5337147741
Si	25.4631391142		14.5370711111		19.9882529377
Si	25.4627664809		19.9903152212		14.5360378415
Si	25.3722153293		19.999254971		19.9979907403
Si	25.4660180914		20.0082643342		25.4599536819
Si	25.4652058491		25.4616330918		20.0078129017
Si	25.4689038972		25.463369545		25.4622846794
Si	14.5878610401		11.8359148656		22.7547710855
Si	14.5093415953		17.2823032526		17.2819492168
Si	14.5741154822		17.2535996899		22.7524105007
Si	14.5929810551		17.2535649139		28.1699723221
Si	14.5910651558		22.754798124		11.8319129395
Si	14.5783953775		22.7485808603		17.2536215845
Si	14.5145431731		22.7235551975		22.7184951685
Si	14.593281288		28.1711391928		17.2476885774
Si	20.0837518823		11.8264049597		17.3530024051
Si	19.9147006274		11.8264932375		22.6458318555
Si	20.084359899		17.3546402319		11.8250004612
Si	19.9950166845		17.2707005726		17.2702444642
Si	20.0069722062		17.2706221256		22.7294416335
Si	19.9188608175		17.3540816281		28.173686271
Si	19.9160916116		22.6473480908		11.825476517
Si	20.0072228116		22.730219139		17.2698031733
Si	19.9987380916		22.7299898228		22.7289438841
Si	20.0908932879		22.646578486		28.1737678794
Si	19.9182355742		28.1752290537		17.3536403363
Si	20.0894318278		28.175029771		22.6462550123
Si	25.4095997998		11.8308856483		17.2447776373
Si	25.409416217		17.2470113727		11.829473611
Si	25.4252674743		17.2520973526		17.2504595454
Si	25.4930902562		17.2795102997		22.7172196118
Si	25.4925209523		22.7189288863		17.2787859322
Si	25.4277705797		22.7465484319		22.7454225347
Si	25.4154302621		22.7516505747		28.166786139
Si	25.4144207998		28.1682122974		22.7513829144
Si	11.826629811		17.3587102289		20.0874796316
Si	11.8301935667		17.2588183393		25.4159299524
Si	11.833197657		22.7553185454		14.5908424988
Si	11.8290406652		22.6503624812		19.9149714853
Si	17.3523114687		11.8276947211		20.0850436402
Si	17.2462619769		11.834411227		25.4103651852
Si	17.2804807274		17.2816567317		14.5092756458
Si	17.2699375465		17.2710703491		19.9966926391
Si	17.2552171484		17.2549819434		25.424772685
Si	17.2541542109		22.7486254197		14.5757973441
Si	17.2737282013		22.7311025228		20.0049559642
Si	17.287511424		22.7223700298		25.4902522384
Si	17.2494055209		28.1704026883		14.5905951042
Si	17.3574724039		28.175721926		19.9157037393
Si	22.7518831812		11.8316805313		14.5884358345
Si	22.6461280143		11.8256619408		19.913860951
Si	22.7472809831		17.2530239045		14.5745783294
Si	22.73104627		17.2700979195		20.0038182397
Si	22.7225225429		17.2798708727		25.4894116368
Si	22.7207562592		22.7197206933		14.5081707422
Si	22.7324276113		22.7295634941		19.9936213899
Si	22.7522677621		22.7471896722		25.4230784913
Si	22.6501351678		28.1745814163		20.0839919654
Si	22.7587367533		28.1689044465		25.4087868993
Si	28.1691825075		17.2464917005		14.5871563095
Si	28.1759104513		17.3525036689		19.9123632792
Si	28.1767552215		22.6452231083		20.082131922
Si	28.1729064182		22.7513878606		25.4072618507
Si	11.8280072892		14.5975341773		22.7571967778
Si	11.8275923275		20.0876869593		17.3544999146
Si	11.830643606		19.9225822294		22.646890279
Si	11.8345547832		25.4126449798		17.2472916324
Si	17.2796670609		14.510584725		17.2812699686
Si	17.2529718023		14.5773061188		22.7481791895
Si	17.2483271218		14.5932345471		28.1691488608
Si	17.3539815426		20.0861693366		11.8256834482
Si	17.2720088621		19.9959212071		17.2703456118
Si	17.2737593251		20.005982557		22.7288315862
Si	17.3591917519		19.9175633708		28.1743080736
Si	17.2484000424		25.4114474221		11.831702861
Si	17.2554685505		25.4258737062		17.2526290188
Si	17.2857067217		25.4925053799		22.719168206
Si	22.7517485761		14.5907125897		11.8299870913
Si	22.7474730198		14.5756295632		17.2512473563
Si	22.7206749419		14.5088220773		22.7180891092
Si	22.6464520052		19.9157718028		11.824746563
Si	22.7309300547		20.0050886767		17.2692025326
Si	22.7327044885		19.9944907648		22.7282762272
Si	22.6515776337		20.0841076016		28.1727468747
Si	22.7218892848		25.4909255271		17.2796177896
Si	22.7514494264		25.424208561		22.7461464535
Si	22.7594335635		25.4095480888		28.1681152868
Si	28.1693696069		14.5891530712		17.2440049445
Si	28.1755976878		19.9143706834		17.3509776494
Si	28.1771040443		20.0833871291		22.6435184883
Si	28.1725418273		25.4086999219		22.7504679083
Si	13.1421711989		15.9467054262		18.6915464342
Si	13.2222055074		15.8849943428		24.1280172972
Si	13.1876938852		21.3899098266		13.1872313446
Si	13.3082973689		21.364917367		18.6380649553
Si	13.1485249157		21.3175890112		24.0570673504
Si	13.1899399459		26.8159547241		18.6123997707
Si	19.1435533517		10.6033336888		19.1448212954
Si	18.1270488213		10.6009788915		23.5882992509
Si	18.6882270913		15.944340413		13.1421923003
Si	18.6220064606		15.9225323027		18.6232093408
Si	18.6399778317		15.9098631231		24.0915401692
Si	18.1318069391		16.4140839048		29.4019198963
Si	18.6376668781		21.3642620089		13.3055106571
Si	18.637627659		21.3655133716		18.6349299125
Si	18.6266529759		21.3778687412		24.0779047098
Si	19.1512244692		20.8554724502		29.3979963268
Si	18.6136609389		26.8147262965		13.1868747671
Si	18.63989876		26.6953535143		18.6369238081
Si	18.694062785		26.8582348334		24.0568690393
Si	23.5875505056		10.5985171944		18.1268631727
Si	24.119075687		15.8806324657		13.225113893
Si	24.0920393125		15.9085198636		18.6367567409
Si	24.0817912708		15.9196227767		24.0776163114
Si	24.0575101904		21.3115578006		13.1411595172
Si	24.0805437009		21.3770968431		18.6209656934
Si	24.09489567		21.3606593092		24.089482142
Si	23.5939035419		21.8703116857		29.400073728
Si	24.0596234875		26.8571730771		18.6875719609
Si	24.1243037597		26.7728109973		24.1181622963
Si	29.402696933		16.4107413592		18.1254476462
Si	29.4000280997		20.8537398882		19.1420362143
Si	29.404989659		21.8696896488		23.5850516772
Si	10.5984697344		16.4214577479		21.8756631175
Si	10.6003653645		21.8742118097		16.4127527018
Si	10.6049286325		20.8604174995		20.8557357166
Si	16.409339096		10.6024917232		21.8722557912
Si	15.9201085536		15.9221695635		15.921203076
Si	15.9074289452		15.9109676359		21.3646121533
Si	15.8817098056		15.8848997503		26.7747360971
Si	16.4124410718		21.8730215777		10.5986398816
Si	15.9105215634		21.3626444138		15.9090476693
Si	15.9250504818		21.3792588139		21.3772973017
Si	15.9503226671		21.3155645103		26.8575154119
Si	15.8827893361		26.7750948012		15.8809361068
Si	15.9476013757		26.8590217333		21.3118202534
Si	21.8701719658		10.5989966114		16.4104926307
Si	20.8541491202		10.6026402802		20.854154787
Si	21.8704593231		16.4126848677		10.597151264
Si	21.3612649532		15.9092319096		15.9081011137
Si	21.3787524525		15.9215820789		21.3766596861
Si	21.3141785876		15.9431114038		26.8564265362
Si	20.8551292759		20.8559149358		10.6013340928
Si	21.3789049267		21.3778371611		15.9205649175
Si	21.3677820614		21.3647163396		21.3636854702
Si	21.3684332404		21.3632354194		26.6933060834
Si	21.3135758919		26.857892104		15.9430127357
Si	21.3671513303		26.6947342073		21.3626822689
Si	21.3948632039		26.8139144492		26.8132274887
Si	26.7738922618		15.8797463666		15.8776122653
Si	26.8590989396		15.9421479993		21.3086535623
Si	26.8585728264		21.3108000941		15.9410751953
Si	26.6969709287		21.3621719959		21.3608650781
Si	26.8179211965		21.3864509628		26.8109014805
Si	26.8170784187		26.8125496918		21.3860726734
Si	10.6038042965		19.1496385305		19.1466411923
Si	10.6012680558		18.1395811413		23.59086599
Si	10.6007720907		23.5917166142		18.1288433115
Si	15.9414875691		13.1450725488		18.6900385231
Si	15.8790177672		13.2305738915		24.1213486779
Si	15.9436213142		18.6901285152		13.1427137803
Si	15.9230821703		18.6237783351		18.6228000936
Si	15.9116790836		18.6405361264		24.0909721402
Si	16.4162549579		18.1322739103		29.4025504211
Si	15.88182178		24.1212312229		13.2271763705
Si	15.9121249219		24.092717126		18.6386521864
Si	15.9262172445		24.0820230311		24.0794887318
Si	16.4153319985		29.4031799571		18.1295753756
Si	21.3868041173		13.187319588		13.1854894693
Si	21.3630498636		13.3061343213		18.6357817711
Si	21.3120251107		13.1426844271		24.0556750499
Si	21.3633133047		18.6374608268		13.3048248642
Si	21.3660112154		18.635383187		18.6343625442
Si	21.3807384772		18.6222763639		24.0775088905
Si	20.8603938129		19.144766825		29.3969410207
Si	21.3126599253		24.0574747288		13.142078386
Si	21.3801296634		24.0788172267		18.6217167457
Si	21.366052326		24.0910504247		24.0902792096
Si	21.8777336255		23.5877537776		29.4008831346
Si	20.8586122963		29.3985754613		19.1449144391
Si	21.8763513888		29.4019238331		23.5874992221
Si	26.8139699362		13.1858444839		18.6091484094
Si	26.8134917851		18.61165879		13.1843486397
Si	26.695782947		18.6359606675		18.6343736987
Si	26.8604305194		18.687291298		24.054074374
Si	26.8596691827		24.0559321119		18.6865478901
Si	26.7773846864		24.1185408442		24.1175253177
Si	13.1834702213		13.1932383414		21.3924861386
Si	13.1436142426		18.6906342826		15.9442061198
Si	13.3084344405		18.6395816644		21.3657488244
Si	13.1924398162		18.6218914745		26.8152241151
Si	13.2294412783		24.1209682341		15.8814597836
Si	13.146622098		24.0602576248		21.3109927254
Si	18.6873728555		13.1437867792		15.9432516198
Si	18.636579681		13.3071400046		21.3630691947
Si	18.6122798188		13.1887111862		26.8135683243
Si	19.1448981979		19.1462835244		10.6014560269
Si	18.6232886247		18.6232401079		15.921110389
Si	18.6378605305		18.6357373335		21.363848613
Si	18.6409651136		18.6381458665		26.6939967903
Si	18.1295367415		23.5895911546		10.5985947816
Si	18.6406232192		24.0921068632		15.9087348958
Si	18.6266095746		24.0795601588		21.3771131417
Si	18.6958322539		24.0585920739		26.857360751
Si	18.1316791122		29.4028628213		16.4123493405
Si	19.1492203097		29.398857521		20.8552758821
Si	24.1193391289		13.2266367739		15.8784184622
Si	24.057482272		13.142178821		21.3094385195
Si	23.5876416562		18.1291826336		10.5970535869
Si	24.0918784422		18.6385366612		15.9073616893
Si	24.0808278808		18.6218442653		21.3757386222
Si	24.0608572295		18.6875079771		26.8553513147
Si	24.0812850633		24.0794244714		15.9192342586
Si	24.0944450157		24.0906899977		21.3599605713
Si	24.1250724236		24.1189641293		26.7720043001
Si	23.592753857		29.4016055039		21.8702550884
Si	29.4025038654		18.1277753225		16.4087798567
Si	29.4002620787		19.1436376253		20.8518018381
Si	29.4047358688		23.5866948529		21.8683666767
C	8.971318493483338		21.48927277446474		21.484590991564744
H	8.160470562218782		21.24693953786626		20.790837301409734
H	8.987653460304825		22.576199766528884		21.6103932200082
N	8.63815419357872		20.8938237030808		22.786643967697845
H	9.46193208010507		20.424796906812485		23.183014716054053
H	7.886844374047081		20.20144265950818		22.67784397102213
H	8.32448644528463		21.618057399855996		23.444428713899402
C	12.007208630399756		14.898232138976814		17.656093038781965
H	12.469627487600139		14.641966793706057		16.69797466346566
H	11.069661049958585		15.421061228600623		17.443589873271318
N	11.672471071699322		13.64132292133683		18.34095067757043
H	11.952243462814515		13.6903935409153		19.32838441993691
H	12.16454460563687		12.855030008603899		17.899020268700237
H	10.661571658040138		13.463806847284626		18.294549221595332
C	24.192625647621593		8.949580479361135		18.73882050969694
H	23.358267241587583		8.267151321699155		18.927580788498254
H	24.753358108540343		9.055553112694199		19.672550784538906
N	25.07892219030139		8.31035630643886		17.75557542570939
H	25.355424808178896		8.988023176870769		17.03445142310935
H	24.596156528288283		7.525637299402845		17.300769105087685
H	25.926789180705992		7.953466945800157		18.213106000693337
C	21.251959656837602		31.05060072083151		24.180457470981775
H	21.670708048783908		31.303520886674384		25.15932167083403
H	20.161764117490122		31.050028805500332		24.275202796986342
N	21.6186419030622		32.1249885393118		23.24657581584295
H	21.95135720332134		31.725826793694726		22.36019195886596
H	22.367325160314955		32.7030776934267		23.64780106916598
H	20.808182105143096		32.725840238715215		23.05237275850101
C	25.12896277827351		14.833577584490794		25.16552148852479
H	25.812110134701946		15.429049492035896		25.778886668926678
H	25.733315605460056		14.142313042610342		24.570194426053714
N	24.29714990305492		14.031205422020467		26.073919118152514
H	23.313244038519414		14.06967488440737		25.78039695153421
H	24.36812437267905		14.39381775880246		27.032652820269572
H	24.602706729304444		13.050284661638058		26.07043142792584
C	25.10651827518044		12.011489128919521		22.348988558821894
H	25.886083780457106		12.5692347975773		22.876900805200233
H	25.59935214183634		11.252348561767777		21.733908322526236
N	24.296587527335856		11.312702026806924		23.35725874563542
H	23.296882535299993		11.422322832922465		23.14683270194036
H	24.480124155796002		11.701183559034547		24.290581733047368
H	24.52170124863905		10.310317834912134		23.36876615717975
C	13.568652084568587		23.58042876311156		10.515628183250278
H	14.199712395216894		24.133706199172835		9.813388259242876
H	12.857744512932491		24.288291958578238		10.952713345425995
N	12.799410154753026		22.594104831136622		9.743402856919209
H	12.81282597566599		21.683310160275784		10.218775337591712
H	13.206676378611597		22.481603134062926		8.806827721246945
H	11.823000885126477		22.897486046958434		9.642569071540358
C	21.48980702170304		18.516469597063633		31.030551012696787
H	21.55849898135955		19.324461354634145		31.765346686456954
H	22.485830753706516		18.075076936659983		30.92753372032478
N	20.599138193437962		17.485373281525394		31.582320372520602
H	19.936178120851512		17.168509131108074		30.864137273000377
H	20.067388417247674		17.864073826341144		32.375745521213176
H	21.14247892863418		16.676271983578722		31.907464358067685
C	18.515839985919488		18.518713327113705		8.967429890812232
H	17.46768363062131		18.212360860717652		9.03821385072619
H	19.092956957495673		17.653456462788384		8.62718016229412
N	18.609332522831703		19.554557656918277		7.9285912748793095
H	19.195181305876147		20.332671731133328		8.255738952562961
H	17.674630912108498		19.918464346446292		7.705880220083632
H	19.024331123204362		19.168912405021313		7.071481843372421
C	31.008383568644177		24.274131862714903		21.223894479998528
H	30.88573346094558		25.30422724088891		20.875534880236916
H	31.383816638180974		23.68152074311214		20.38403414094129
N	32.043590467680225		24.275761633532944		22.26756301935154
H	31.741800374068415		23.70510516366816		23.066925168129707
H	32.21532867331961		25.23445137620027		22.59484784901559
H	32.92356179783394		23.890731538264745		21.90289198945574
C	30.90387892247808		19.019077264214342		15.767645091864997
H	31.573429658124766		18.335241802384367		15.237018272585415
H	31.472517978825838		19.47434054923179		16.584277373134267
N	30.52768462544643		20.09022616135892		14.833826109927484
H	29.51771939516253		20.27062759752543		14.889785626961178
H	30.759696923301693		19.818257538057487		13.870551094532896
H	31.029225226822284		20.9579557787258		15.059846048242388
C	21.245189981672056		8.950420621719651		15.817875785035822
H	21.75136806219252		8.642885982052045		14.897712677752589
H	20.171224448554312		8.9855770465355		15.610836229952055
N	21.472117135770283		7.903026695571467		16.82404179032559
H	21.728084452108714		8.326267823330314		17.72462692946565
H	22.234516147216283		7.282881930278305		16.52426919130151
H	20.62306877364424		7.339637618317095		16.955541990331312
C	31.037012567746547		18.51665059137092		21.47432500705895
H	30.92905671802915		18.026583791381444		22.446782725347965
H	31.755103680567643		19.334004336532434		21.591718903228227
N	31.62056030450077		17.53950545222474		20.543970549891135
H	31.120171820771652		17.561728023701203		19.646851028997602
H	31.550806680191293		16.59207323599427		20.935380847717234
H	32.61109281921124		17.751923253094493		20.37277857760556
C	22.419174777316766		25.10539953570241		12.075739564918791
H	22.025613999511563		25.187604265407707		11.057974246003157
H	23.424808814852415		24.67892492629687		12.009990739970062
N	22.54556383869799		26.46622507823023		12.617107875745198
H	22.179231171022334		26.50141435951876		13.576413876547878
H	22.014455605578625		27.128577976294768		12.038395445570819
H	23.530412175739315		26.758575395371356		12.630809017829804
C	21.25333755411255		24.18015815274716		31.04975747861243
H	22.06041364602869		24.61979586768417		31.64376152679926
H	20.824236614103327		23.357063142962307		31.6293179207153
N	20.210303987298065		25.203111633155697		30.88682450031057
H	19.88710735258301		25.227508471566892		29.91180929956527
H	20.580739383726453		26.12928659969924		31.133143281813346
H	19.407076977423216		24.998662798492685		31.49395687534294
C	8.947816138008154		15.832616138189962		21.252599506467586
H	8.985284365702304		14.775867110037005		20.97086989990974
H	8.631699481752928		16.40049639860701		20.372210054368868
N	7.907058873300236		15.984536135299123		22.279558429909045
H	8.249321321270962		16.577082477948238		23.046012055787507
H	7.651339900307589		15.066431852317244		22.663469521337664
H	7.066367471088803		16.418709912251053		21.879166404694917
C	17.657356748679867		25.108041975467618		27.98865360837934
H	17.87265935915703		26.171942589349257		27.84989404112726
H	17.846535990237857		24.864640795165965		29.038639512042487
N	16.223743725213772		24.905506478074543		27.73442325762605
H	16.0822841394261		24.077491016989818		27.142743028200197
H	15.830057785084719		25.723725011539624		27.253564436620394
H	15.716988576488458		24.768411107881906		28.6175918456726
C	19.670657217226122		12.106710953046266		27.894638524590444
H	20.160162595316525		12.690338887500499		28.68029548964915
H	20.45319389447779		11.610407004269463		27.312554289204808
N	18.869218950822724		11.061823041460109		28.547942402862592
H	17.93967209949117		11.00486059384345		28.11388728788166
H	18.75288459624001		11.276515371826292		29.54597492484059
H	19.329122248029982		10.14728242668379		28.46026630952782
C	25.10417047038786		27.87382083501756		17.532172057463505
H	24.48355292277049		28.424399429896734		16.818595839915385
H	25.789372802919537		27.242016171695308		16.95874032761469
N	25.912889506483786		28.85447517115505		18.27054228551365
H	25.902351945963602		28.638127827106842		19.27492702187794
H	25.534676581048465		29.800057171948872		18.134435502036826
H	26.88613872675692		28.839652923675278		17.941682235617964
C	21.4835955831423		21.483823267628946		8.967210098887353
H	21.379910184770967		20.72514258428774		8.185451244323172
H	22.54177824204009		21.75587939311128		9.02835127074027
N	20.74017580095297		22.67581764196782		8.53434009646857
H	20.17848317443687		23.044769650523648		9.311567039388118
H	20.11040826377989		22.43816112594325		7.758062038544724
H	21.3870397022393		23.409348674594792		8.219567172623718
C	15.812144766805936		18.74493984917434		31.051577808489156
H	14.752566606415213		19.01512865487799		31.009315779486208
H	16.368679333163662		19.6307687788548		31.372638085836236
N	15.970016658716101		17.71726340560009		32.090739775204305
H	16.572703975404597		16.958175151141717		31.74977213400332
H	15.054892496816798		17.32268629873847		32.34084389102172
H	16.39544633244106		18.120420391193772		32.93457430512193
C	14.898603654701134		27.98892619341846		22.3522623192276
H	14.26977729041354		28.631193815674173		21.728111974535842
H	15.517792998216931		28.637804427085296		22.979211210804802
N	14.012275445889271		27.223141811404236		23.240460825490388
H	14.30032481452432		26.23715758129908		23.264305558931742
H	13.042972451852645		27.273902711983055		22.903458703206176
H	14.047730213545574		27.598756872989288		24.196096195891094
C	27.880531874482887		12.090079506846548		19.668084076411596
H	27.328826652690736		11.207184594660564		20.00514767587522
H	28.233375113069346		12.62128554138576		20.55736756088263
N	29.062015228902137		11.62314642896804		18.92850947975948
H	29.172640603987638		12.161983067626377		18.06068287534672
H	28.95927805142454		10.62970234594864		18.68724340262123
H	29.910750329736647		11.737088388158979		19.496178956433333
C	14.891503887723497		12.015107825263728		17.650656979870256
H	13.836222301583735		12.300818228219558		17.698030890381922
H	14.970767259019278		10.97783528615479		17.99019536574338
N	15.302492607666077		12.055995011724146		16.2398712023465
H	16.211554208733308		12.526175897019321		16.14908104501584
H	14.609280887729675		12.571494262532212		15.683621773170039
H	15.385635557960866		11.104600119046207		15.86103392302646
C	16.19713040249769		26.462159063255015		10.713473371422387
H	16.20766940466933		26.081357375379195		9.6876210663881
H	16.556543406670674		27.495452075694296		10.688350458066147
N	14.798936801843041		26.486414790695857		11.166646974774013
H	14.727698186903806		26.10220672045386		12.116918057466979
H	14.213257260757082		25.92143880155853		10.539369523759204
H	14.439061190039897		27.448715148930255		11.173735047238624
C	31.034054235787764		21.481310085486296		18.512978002319485
H	30.95518156899782		22.518407006262		18.172826525546263
H	31.390525243630748		20.881115167304355		17.670245661266893
N	32.0619683531056		21.432399378354685		19.56269239687954
H	31.73245853437091		20.867684244164476		20.35529949290756
H	32.27015557835934		22.38059461770603		19.89926224254696
H	32.92796392699079		21.015258800163735		19.199886553159
C	29.322887340934642		13.431171547159417		16.356268707068953
H	28.928829384184745		12.410327209156112		16.346828787117676
H	30.304855428089997		13.404150044299447		16.838463514269986
N	29.522029698147204		13.846089635563283		14.96017225571643
H	29.162961147835865		14.798349909669644		14.818835570329409
H	29.022774010602433		13.209607256264729		14.326666665372787
H	30.520692241093673		13.832623936912928		14.719185790379571
C	16.360733959052194		13.435755030800841		29.32328037271327
H	16.20958478632975		13.894800366418165		30.305077324854242
H	16.928884905709904		12.512367421391094		29.471817043271425
N	15.039656349222055		13.067224612547522		28.794281998776718
H	14.96283365551574		13.344824136945865		27.808004811630266
H	14.299816290848714		13.540855770999613		29.32720376364419
H	14.894683350779282		12.052343312635152		28.861968430287675
C	18.523692459966405		21.483376440470483		31.032481002895086
H	17.452526729877544		21.290278881679633		31.14566783637059
H	18.67899785189246		22.56239813995043		31.127852514312796
N	19.216029058350443		20.83159133129388		32.15352792697706
H	20.044999739047825		20.328527398917736		31.81376300444036
H	18.590021631396283		20.159477728464758		32.61404220470392
H	19.515976964092577		21.528685572429225		32.84611261422971
C	27.89394891929577		19.67109825227907		12.10277552292458
H	27.955978592917276		19.266449565922628		11.087932821802669
H	28.912076003592		19.73218320692061		12.499246437922011
N	27.36920818498821		21.040853723575218		12.006250341688618
H	26.644279681783814		21.193613741979785		12.718183592856779
H	26.956409942503146		21.197641638903452		11.078505466031377
H	28.121134421176425		21.7258477358747		12.151070280390702
C	21.24510752727558		15.820442119959086		8.94858107768476
H	22.006406497139626		15.937621627215417		8.171286545758086
H	20.360625583915038		16.38355811657315		8.635379251179053
N	20.87446931067186		14.398871243955348		9.000190736575059
H	20.83038206013759		14.079339776645963		9.975722318759583
H	21.571142012841314		13.832646620914717		8.500458592307346
H	19.9562384603906		14.249806166987574		8.564054995526067
C	13.42989607328219		10.682227636372426		23.642308641178538
H	13.96585825595552		9.819100997813685		24.048819271241676
H	12.654099696763119		10.305009745463709		22.968995962805216
N	12.759362930809248		11.359384587664128		24.761569007743304
H	12.898209685358538		12.375291908409018		24.69554017685809
H	13.145491531823527		11.032729970161622		25.6559385387779
H	11.750716751948215		11.164327329239434		24.74859873384949
C	20.326990149144045		12.106301900579432		12.104843776954251
H	20.933980819252795		11.38199794428356		11.553082911093796
H	19.772036908483443		12.701196149744447		11.372975584660937
N	19.34852271076787		11.353417714006678		12.902757853560402
H	19.30196340335446		11.732799228973828		13.85649146893443
H	19.62073714438466		10.364091076611755		12.955932098938641
H	18.4145319548333		11.41464824846789		12.47908962761188
C	24.199691406005122		21.25782797784057		31.0485532611789
H	25.293181919969104		21.23862384894111		31.086018513133165
H	23.84218615111045		20.243259609942363		31.24941226018831
N	23.730342854639925		22.121442861093772		32.141613767626254
H	22.994674588977706		22.75365954614886		31.80279201782926
H	24.50740340128344		22.686931017704122		32.505063138630675
H	23.34885814357905		21.555506656344974		32.90957750608096
C	18.5207200089529		31.032883902196584		21.48340417911774
H	18.086483563652614		31.627456417534876		20.673826399421888
H	19.327118759344337		31.620902798069082		21.932245076724023
N	17.481994935654356		30.845096064949512		22.50648088703509
H	17.466738448721944		29.866940533102092		22.82062242714523
H	16.558899471912408		31.080741337373972		22.121693329929812
H	17.662846948742363		31.447957273916543		23.318536050361338
C	24.198561666724753		31.05013931341504		21.257937216243448
H	25.26046070130976		31.00933492161824		20.996787087471656
H	24.072998224082106		31.825656196081525		22.01971848699706
N	23.4600967715257		31.476440989146607		20.060508103591218
H	22.62512402705568		30.891581385414298		19.932189468879447
H	24.0545104802464		31.38736731277226		19.22718126689264
H	23.164124292669406		32.45627093253374		20.149481414205273
C	16.198333368684384		29.289177948533045		13.540266942182377
H	15.47042511632463		29.83444649141389		14.148810893011872
H	15.643250549085499		28.719742026003953		12.788516244530829
N	17.02074580698488		30.28073619038093		12.832206186065953
H	18.01369509401899		30.022671241021257		12.888421018543227
H	16.89845925918175		31.209271789527644		13.254773381957497
H	16.750443413365684		30.332306542432672		11.842327511180493
C	10.863120965160176		16.21380701492017		26.61272647448256
H	11.009875228803606		15.147533098351047		26.415199087149006
H	9.790884164964247		16.42066131061628		26.541854318048173
N	11.27728427150652		16.472429774882578		27.99926281504695
H	11.854468606904163		17.321277469378657		28.044226651852494
H	11.827184914824983		15.682156583926457		28.358112309729567
H	10.455779046759169		16.601640986285798		28.602600452494272
C	26.449112711810393		16.18499581181139		10.711102408263882
H	26.083144372294875		16.219167285176134		9.680377695898676
H	26.43638698571498		15.139501468186054		11.034031117490512
N	27.849133545241706		16.63307897942288		10.703156285841713
H	28.01360335127939		17.295380890917986		11.471278524181324
H	28.06655009337907		17.100568253844912		9.814404792680438
H	28.484072256713752		15.833473109421229		10.817462722813218
C	14.893986565844168		17.654072242234914		12.009376101453272
H	14.584354245502839		16.72443849701391		12.496616159070058
H	15.439476273615888		17.386786353717984		11.099154946779949
N	13.677330803235968		18.37373928608028		11.60598038839334
H	13.756034273979063		19.36831456211507		11.851605501305908
H	12.857875534953877		17.981022634561107		12.085524013733405
H	13.532511942176146		18.2964848845133		10.591760525089596
C	10.518644983630324		26.435241739946157		16.421290866337962
H	10.30352044909516		26.064736949462702		15.414344203068334
H	10.82824309211759		27.48101311392304		16.331766777447807
N	9.263639166446339		26.40480065110019		17.18610047594301
H	9.427390738632113		26.00934950541761		18.12018276679592
H	8.567370067533801		25.825000822760266		16.701603938642158
H	8.88376241630129		27.353389529981214		17.29313070420806
C	12.016936684638665		22.35525021124786		25.1070041624219
H	10.966785892107431		22.1202356400836		24.90839547155843
H	12.162006192809807		23.42188136804215		24.91013839329315
N	12.262676756015464		22.1276939847929		26.53834269020675
H	13.142593243325978		21.613638348688966		26.669490280535005
H	11.4969703735961		21.577224691675845		26.946230771618136
H	12.32717433799468		23.02222571328253		27.03957689179737
C	27.898752897191187		20.32663698404619		27.89173318119119
H	28.621669371774605		19.761455097361754		27.295532582785164
H	27.303551358368182		19.607219335608185		28.4624140843224
N	28.653754276379154		21.143713497075513		28.852596797569763
H	28.27564126929665		22.098699603218996		28.879763009082083
H	29.64284086206343		21.189941576538406		28.578250147528987
H	28.593035117163886		20.73960509123146		29.795248512802047
C	17.648108403315334		14.895479668803734		12.01186303225944
H	16.68983551144964		14.643549432915595		12.476339262825338
H	18.154775924112904		13.957497839697314		11.764918849224038
N	17.363100287612276		15.594746250025283		10.750634812479166
H	17.9669737973103		16.420997209655415		10.659245272075037
H	16.3825101008854		15.900793571515353		10.728878976395453
H	17.531415611456403		14.97475640426543		9.94884605032674
C	8.951536551401952		21.262108524431454		15.807531161154646
H	8.450973672359874		22.016237780352917		15.192535374755714
H	8.28791275477874		21.02080414052765		16.643520974946775
N	9.101909798852997		20.048468228570798		14.991832001712703
H	10.049000014987804		19.66469366880805		15.098804530338647
H	8.946204696125179		20.266616114538333		13.999933410861596
H	8.423277590833658		19.333413244469465		15.28120610585929
C	26.45506276008014		29.28604217787965		23.81304230837302
H	27.335414838882922		29.641610157161086		23.26894160330333
H	26.805891110635518		28.766139980254266		24.709772195937212
N	25.693304567418398		30.46508121889608		24.2494955082373
H	24.69194329330442		30.328532078838997		24.06419617430838
H	26.010349602114808		31.29987471888526		23.741265587777896
H	25.822112090935903		30.62493462184076		25.256192179361374
C	15.803325136836067		8.953903104394003		21.260289577065766
H	16.106231355187727		8.146204418642952		21.9336131276118
H	16.20547867322272		8.728029492943122		20.2679403629673
N	14.336679507578504		8.929030381768381		21.164206561663057
H	13.960072149241984		9.881603816008846		21.244684273646666
H	13.94176273282691		8.35501370712739		21.919349589144538
H	14.041239987644166		8.534229200180395		20.262857465431363
