517     

Si	14.5366964035		14.5406029264		20.0119125987
Si	14.5358935115		14.5398291329		25.4679062594
Si	14.5387861885		20.0110707459		14.5382991027
Si	14.6325986156		20.0012461143		20.0010729132
Si	14.5444800001		19.996361116		25.4615379256
Si	14.538032773		25.4657516998		14.5368697569
Si	14.5419208987		25.4648197135		19.9903143685
Si	20.0086361402		14.5384956583		14.5373049666
Si	20.00035645		14.6305599231		19.999474222
Si	19.9921764287		14.5382716515		25.4619365757
Si	20.0007172689		20.0007068045		14.6293558636
Si	20.0023189441		20.0005374729		19.9992441023
Si	20.0044896511		20.0005652703		25.3694447625
Si	19.9924075618		25.4630935243		14.5375779503
Si	20.0036166249		25.3710542998		19.9994297065
Si	20.0159980334		25.4634431561		25.461765722
Si	25.4636385429		14.535753484		14.5337147741
Si	25.4631391142		14.5370711111		19.9882529377
Si	25.4627664809		19.9903152212		14.5360378415
Si	25.3722153293		19.999254971		19.9979907403
Si	25.4660180914		20.0082643342		25.4599536819
Si	25.4652058491		25.4616330918		20.0078129017
Si	25.4689038972		25.463369545		25.4622846794
Si	14.5878610401		11.8359148656		22.7547710855
Si	14.5093415953		17.2823032526		17.2819492168
Si	14.5741154822		17.2535996899		22.7524105007
Si	14.5929810551		17.2535649139		28.1699723221
Si	14.5910651558		22.754798124		11.8319129395
Si	14.5783953775		22.7485808603		17.2536215845
Si	14.5145431731		22.7235551975		22.7184951685
Si	14.593281288		28.1711391928		17.2476885774
Si	20.0837518823		11.8264049597		17.3530024051
Si	19.9147006274		11.8264932375		22.6458318555
Si	20.084359899		17.3546402319		11.8250004612
Si	19.9950166845		17.2707005726		17.2702444642
Si	20.0069722062		17.2706221256		22.7294416335
Si	19.9188608175		17.3540816281		28.173686271
Si	19.9160916116		22.6473480908		11.825476517
Si	20.0072228116		22.730219139		17.2698031733
Si	19.9987380916		22.7299898228		22.7289438841
Si	20.0908932879		22.646578486		28.1737678794
Si	19.9182355742		28.1752290537		17.3536403363
Si	20.0894318278		28.175029771		22.6462550123
Si	25.4095997998		11.8308856483		17.2447776373
Si	25.409416217		17.2470113727		11.829473611
Si	25.4252674743		17.2520973526		17.2504595454
Si	25.4930902562		17.2795102997		22.7172196118
Si	25.4925209523		22.7189288863		17.2787859322
Si	25.4277705797		22.7465484319		22.7454225347
Si	25.4154302621		22.7516505747		28.166786139
Si	25.4144207998		28.1682122974		22.7513829144
Si	11.826629811		17.3587102289		20.0874796316
Si	11.8301935667		17.2588183393		25.4159299524
Si	11.833197657		22.7553185454		14.5908424988
Si	11.8290406652		22.6503624812		19.9149714853
Si	17.3523114687		11.8276947211		20.0850436402
Si	17.2462619769		11.834411227		25.4103651852
Si	17.2804807274		17.2816567317		14.5092756458
Si	17.2699375465		17.2710703491		19.9966926391
Si	17.2552171484		17.2549819434		25.424772685
Si	17.2541542109		22.7486254197		14.5757973441
Si	17.2737282013		22.7311025228		20.0049559642
Si	17.287511424		22.7223700298		25.4902522384
Si	17.2494055209		28.1704026883		14.5905951042
Si	17.3574724039		28.175721926		19.9157037393
Si	22.7518831812		11.8316805313		14.5884358345
Si	22.6461280143		11.8256619408		19.913860951
Si	22.7472809831		17.2530239045		14.5745783294
Si	22.73104627		17.2700979195		20.0038182397
Si	22.7225225429		17.2798708727		25.4894116368
Si	22.7207562592		22.7197206933		14.5081707422
Si	22.7324276113		22.7295634941		19.9936213899
Si	22.7522677621		22.7471896722		25.4230784913
Si	22.6501351678		28.1745814163		20.0839919654
Si	22.7587367533		28.1689044465		25.4087868993
Si	28.1691825075		17.2464917005		14.5871563095
Si	28.1759104513		17.3525036689		19.9123632792
Si	28.1767552215		22.6452231083		20.082131922
Si	28.1729064182		22.7513878606		25.4072618507
Si	11.8280072892		14.5975341773		22.7571967778
Si	11.8275923275		20.0876869593		17.3544999146
Si	11.830643606		19.9225822294		22.646890279
Si	11.8345547832		25.4126449798		17.2472916324
Si	17.2796670609		14.510584725		17.2812699686
Si	17.2529718023		14.5773061188		22.7481791895
Si	17.2483271218		14.5932345471		28.1691488608
Si	17.3539815426		20.0861693366		11.8256834482
Si	17.2720088621		19.9959212071		17.2703456118
Si	17.2737593251		20.005982557		22.7288315862
Si	17.3591917519		19.9175633708		28.1743080736
Si	17.2484000424		25.4114474221		11.831702861
Si	17.2554685505		25.4258737062		17.2526290188
Si	17.2857067217		25.4925053799		22.719168206
Si	22.7517485761		14.5907125897		11.8299870913
Si	22.7474730198		14.5756295632		17.2512473563
Si	22.7206749419		14.5088220773		22.7180891092
Si	22.6464520052		19.9157718028		11.824746563
Si	22.7309300547		20.0050886767		17.2692025326
Si	22.7327044885		19.9944907648		22.7282762272
Si	22.6515776337		20.0841076016		28.1727468747
Si	22.7218892848		25.4909255271		17.2796177896
Si	22.7514494264		25.424208561		22.7461464535
Si	22.7594335635		25.4095480888		28.1681152868
Si	28.1693696069		14.5891530712		17.2440049445
Si	28.1755976878		19.9143706834		17.3509776494
Si	28.1771040443		20.0833871291		22.6435184883
Si	28.1725418273		25.4086999219		22.7504679083
Si	13.1421711989		15.9467054262		18.6915464342
Si	13.2222055074		15.8849943428		24.1280172972
Si	13.1876938852		21.3899098266		13.1872313446
Si	13.3082973689		21.364917367		18.6380649553
Si	13.1485249157		21.3175890112		24.0570673504
Si	13.1899399459		26.8159547241		18.6123997707
Si	19.1435533517		10.6033336888		19.1448212954
Si	18.1270488213		10.6009788915		23.5882992509
Si	18.6882270913		15.944340413		13.1421923003
Si	18.6220064606		15.9225323027		18.6232093408
Si	18.6399778317		15.9098631231		24.0915401692
Si	18.1318069391		16.4140839048		29.4019198963
Si	18.6376668781		21.3642620089		13.3055106571
Si	18.637627659		21.3655133716		18.6349299125
Si	18.6266529759		21.3778687412		24.0779047098
Si	19.1512244692		20.8554724502		29.3979963268
Si	18.6136609389		26.8147262965		13.1868747671
Si	18.63989876		26.6953535143		18.6369238081
Si	18.694062785		26.8582348334		24.0568690393
Si	23.5875505056		10.5985171944		18.1268631727
Si	24.119075687		15.8806324657		13.225113893
Si	24.0920393125		15.9085198636		18.6367567409
Si	24.0817912708		15.9196227767		24.0776163114
Si	24.0575101904		21.3115578006		13.1411595172
Si	24.0805437009		21.3770968431		18.6209656934
Si	24.09489567		21.3606593092		24.089482142
Si	23.5939035419		21.8703116857		29.400073728
Si	24.0596234875		26.8571730771		18.6875719609
Si	24.1243037597		26.7728109973		24.1181622963
Si	29.402696933		16.4107413592		18.1254476462
Si	29.4000280997		20.8537398882		19.1420362143
Si	29.404989659		21.8696896488		23.5850516772
Si	10.5984697344		16.4214577479		21.8756631175
Si	10.6003653645		21.8742118097		16.4127527018
Si	10.6049286325		20.8604174995		20.8557357166
Si	16.409339096		10.6024917232		21.8722557912
Si	15.9201085536		15.9221695635		15.921203076
Si	15.9074289452		15.9109676359		21.3646121533
Si	15.8817098056		15.8848997503		26.7747360971
Si	16.4124410718		21.8730215777		10.5986398816
Si	15.9105215634		21.3626444138		15.9090476693
Si	15.9250504818		21.3792588139		21.3772973017
Si	15.9503226671		21.3155645103		26.8575154119
Si	15.8827893361		26.7750948012		15.8809361068
Si	15.9476013757		26.8590217333		21.3118202534
Si	21.8701719658		10.5989966114		16.4104926307
Si	20.8541491202		10.6026402802		20.854154787
Si	21.8704593231		16.4126848677		10.597151264
Si	21.3612649532		15.9092319096		15.9081011137
Si	21.3787524525		15.9215820789		21.3766596861
Si	21.3141785876		15.9431114038		26.8564265362
Si	20.8551292759		20.8559149358		10.6013340928
Si	21.3789049267		21.3778371611		15.9205649175
Si	21.3677820614		21.3647163396		21.3636854702
Si	21.3684332404		21.3632354194		26.6933060834
Si	21.3135758919		26.857892104		15.9430127357
Si	21.3671513303		26.6947342073		21.3626822689
Si	21.3948632039		26.8139144492		26.8132274887
Si	26.7738922618		15.8797463666		15.8776122653
Si	26.8590989396		15.9421479993		21.3086535623
Si	26.8585728264		21.3108000941		15.9410751953
Si	26.6969709287		21.3621719959		21.3608650781
Si	26.8179211965		21.3864509628		26.8109014805
Si	26.8170784187		26.8125496918		21.3860726734
Si	10.6038042965		19.1496385305		19.1466411923
Si	10.6012680558		18.1395811413		23.59086599
Si	10.6007720907		23.5917166142		18.1288433115
Si	15.9414875691		13.1450725488		18.6900385231
Si	15.8790177672		13.2305738915		24.1213486779
Si	15.9436213142		18.6901285152		13.1427137803
Si	15.9230821703		18.6237783351		18.6228000936
Si	15.9116790836		18.6405361264		24.0909721402
Si	16.4162549579		18.1322739103		29.4025504211
Si	15.88182178		24.1212312229		13.2271763705
Si	15.9121249219		24.092717126		18.6386521864
Si	15.9262172445		24.0820230311		24.0794887318
Si	16.4153319985		29.4031799571		18.1295753756
Si	21.3868041173		13.187319588		13.1854894693
Si	21.3630498636		13.3061343213		18.6357817711
Si	21.3120251107		13.1426844271		24.0556750499
Si	21.3633133047		18.6374608268		13.3048248642
Si	21.3660112154		18.635383187		18.6343625442
Si	21.3807384772		18.6222763639		24.0775088905
Si	20.8603938129		19.144766825		29.3969410207
Si	21.3126599253		24.0574747288		13.142078386
Si	21.3801296634		24.0788172267		18.6217167457
Si	21.366052326		24.0910504247		24.0902792096
Si	21.8777336255		23.5877537776		29.4008831346
Si	20.8586122963		29.3985754613		19.1449144391
Si	21.8763513888		29.4019238331		23.5874992221
Si	26.8139699362		13.1858444839		18.6091484094
Si	26.8134917851		18.61165879		13.1843486397
Si	26.695782947		18.6359606675		18.6343736987
Si	26.8604305194		18.687291298		24.054074374
Si	26.8596691827		24.0559321119		18.6865478901
Si	26.7773846864		24.1185408442		24.1175253177
Si	13.1834702213		13.1932383414		21.3924861386
Si	13.1436142426		18.6906342826		15.9442061198
Si	13.3084344405		18.6395816644		21.3657488244
Si	13.1924398162		18.6218914745		26.8152241151
Si	13.2294412783		24.1209682341		15.8814597836
Si	13.146622098		24.0602576248		21.3109927254
Si	18.6873728555		13.1437867792		15.9432516198
Si	18.636579681		13.3071400046		21.3630691947
Si	18.6122798188		13.1887111862		26.8135683243
Si	19.1448981979		19.1462835244		10.6014560269
Si	18.6232886247		18.6232401079		15.921110389
Si	18.6378605305		18.6357373335		21.363848613
Si	18.6409651136		18.6381458665		26.6939967903
Si	18.1295367415		23.5895911546		10.5985947816
Si	18.6406232192		24.0921068632		15.9087348958
Si	18.6266095746		24.0795601588		21.3771131417
Si	18.6958322539		24.0585920739		26.857360751
Si	18.1316791122		29.4028628213		16.4123493405
Si	19.1492203097		29.398857521		20.8552758821
Si	24.1193391289		13.2266367739		15.8784184622
Si	24.057482272		13.142178821		21.3094385195
Si	23.5876416562		18.1291826336		10.5970535869
Si	24.0918784422		18.6385366612		15.9073616893
Si	24.0808278808		18.6218442653		21.3757386222
Si	24.0608572295		18.6875079771		26.8553513147
Si	24.0812850633		24.0794244714		15.9192342586
Si	24.0944450157		24.0906899977		21.3599605713
Si	24.1250724236		24.1189641293		26.7720043001
Si	23.592753857		29.4016055039		21.8702550884
Si	29.4025038654		18.1277753225		16.4087798567
Si	29.4002620787		19.1436376253		20.8518018381
Si	29.4047358688		23.5866948529		21.8683666767
C	13.568652084568587		23.58042876311156		10.515628183250278
H	14.199712395216894		24.133706199172835		9.813388259242876
H	12.857744512932491		24.288291958578238		10.952713345425995
C	12.768012524964636		22.553846711464175		9.711883455844472
O	13.267236190772934		22.21522225744682		8.600083902175568
O	11.693144714615991		22.1543787994069		10.245806310209137
C	18.515839985919488		18.518713327113705		8.967429890812232
H	18.043187911987282		17.537715276143413		9.075766351895657
H	19.329454360521268		18.417634585052255		8.24264160776357
C	17.4778429128006		19.471667925209577		8.371326200029696
O	16.268001082978053		19.148186262900403		8.549178379834526
O	17.94138519993445		20.480305258165405		7.7648871548598875
C	29.322887340934642		13.431171547159417		16.356268707068953
H	28.795237462501024		12.539001688199757		16.00539480329028
H	30.134377413613798		13.101214736733118		17.012100761101447
C	29.955294121337694		14.106665115544347		15.137798312200516
O	29.418090432184083		13.844563539006352		14.0230319703889
O	30.947185885468144		14.854433322779176		15.376508331678094
C	17.648108403315334		14.895479668803734		12.01186303225944
H	17.1305122946126		14.107839707916467		12.567930931053544
H	18.261102883255884		14.412921695083924		11.244478586585792
C	16.58666951095121		15.735547387494714		11.298747539656627
O	15.427102380214649		15.700093245608503		11.802866682358522
O	16.983082890605264		16.374993747203686		10.281912340430033
C	16.19713040249769		26.462159063255015		10.713473371422387
H	16.287208864161524		26.142893437343382		9.670665009998519
H	16.493029482866675		27.514395995681436		10.765861253366804
C	14.719460408696467		26.37488112116766		11.100479767034242
O	14.016606096388816		25.57989710103774		10.412013892565067
O	14.359898969382483		27.107114012268973		12.067195651587646
C	8.947816138008154		15.832616138189962		21.252599506467586
H	8.985284365702304		14.775867110037005		20.97086989990974
H	8.631699481752928		16.40049639860701		20.372210054368868
C	7.86457898494481		15.99073695150766		22.32147512066176
O	7.5818166470610215		14.946372132544617		22.97671295693709
O	7.368515049720234		17.14878753483803		22.43473789264666
C	27.880531874482887		12.090079506846548		19.668084076411596
H	27.328826652690736		11.207184594660564		20.00514767587522
H	28.233375113069346		12.62128554138576		20.55736756088263
C	29.110239039286597		11.604087935993407		18.89832276152878
O	29.029282471537226		10.439669138103493		18.41091745363929
O	30.075330946624646		12.4190883236864		18.832284777376643
C	14.898603654701134		27.98892619341846		22.3522623192276
H	14.26977729041354		28.631193815674173		21.728111974535842
H	15.517792998216931		28.637804427085296		22.979211210804802
C	13.976098784305112		27.1918853060159		23.27671382574601
O	12.784626826762		27.050555693324704		22.87620221309921
O	14.504307828364276		26.760158148917355		24.34188794507942
C	25.10417047038786		27.87382083501756		17.532172057463505
H	24.48355292277049		28.424399429896734		16.818595839915385
H	25.789372802919537		27.242016171695308		16.95874032761469
C	25.9458984467326		28.894501878752497		18.300679845842225
O	25.484880259787527		30.071843818734465		18.336973434330808
O	27.012102544199415		28.45100959586215		18.816928288417778
C	25.10651827518044		12.011489128919521		22.348988558821894
H	24.586703541978675		11.071807285018302		22.55942767873257
H	25.357125554647844		12.474930656514617		23.308113816480283
C	26.418940312630117		11.668477249992621		21.64132250302192
O	26.447707971713214		10.552581652049202		21.046395219077592
O	27.333778364707893		12.537754032710716		21.72745176865109
C	15.803325136836067		8.953903104394003		21.260289577065766
H	16.268983229239833		8.131529765079241		21.81197660751253
H	16.034915936654112		8.816062109792828		20.199691217861396
C	14.287734624878468		8.825450269759767		21.425774529066018
O	13.898046115257848		8.18257689903316		22.443048204917446
O	13.587743273862587		9.37596857106739		20.527481288899796
C	16.198333368684384		29.289177948533045		13.540266942182377
H	15.47042511632463		29.83444649141389		14.148810893011872
H	15.643250549085499		28.719742026003953		12.788516244530829
C	17.05431366160939		30.321207955354314		12.803305747040792
O	17.107887459938674		31.469328754494207		13.331451101668609
O	17.616172909965872		29.915096495236423		11.745299743325688
C	15.812144766805936		18.74493984917434		31.051577808489156
H	14.752566606415213		19.01512865487799		31.009315779486208
H	16.368679333163662		19.6307687788548		31.372638085836236
C	15.976460409406311		17.675317428311345		32.13315454935594
O	14.93793093875989		17.00797968830159		32.40902755683861
O	17.13312960520706		17.573617620709257		32.63491401116942
C	16.360733959052194		13.435755030800841		29.32328037271327
H	16.20958478632975		13.894800366418165		30.305077324854242
H	16.928884905709904		12.512367421391094		29.471817043271425
C	14.985734814126946		13.05218255465963		28.77269022841196
O	14.004710896450144		13.694974535448607		29.246398555633938
O	14.978161307370044		12.133609484554071		27.90311838332252
C	8.951536551401952		21.262108524431454		15.807531161154646
H	8.450973672359874		22.016237780352917		15.192535374755714
H	8.28791275477874		21.02080414052765		16.643520974946775
C	9.108047482422426		19.998931889964243		14.958538158470176
O	9.094797370873092		20.173099397074132		13.705749608510105
O	9.233825884533697		18.91656515084173		15.600917386421733
C	25.12896277827351		14.833577584490794		25.16552148852479
H	25.812110134701946		15.429049492035896		25.778886668926678
H	25.733315605460056		14.142313042610342		24.570194426053714
C	24.26319835712763		13.998455537838003		26.110996572423034
O	24.146257556261887		14.445212134540597		27.288588364724422
O	23.75767151496245		12.951262564534144		25.61318282671735
C	18.523692459966405		21.483376440470483		31.032481002895086
H	17.467643945170128		21.76324053764536		30.969778775589624
H	19.082797849735844		22.36580239666703		31.358408775356075
C	18.658580131347854		20.418580701906237		32.12285495308131
O	17.609023725626656		19.762631844631223		32.38391334645184
O	19.805118127936012		20.308962301501367		32.645754050013295
C	31.034054235787764		21.481310085486296		18.512978002319485
H	30.95518156899782		22.518407006262		18.172826525546263
H	31.390525243630748		20.881115167304355		17.670245661266893
C	32.10392403136347		21.430403022961556		19.605537882371788
O	32.328721937184426		22.520527789877825		20.206439647217145
O	32.64834153072231		20.3036770762677		19.790165248541292
C	21.245189981672056		8.950420621719651		15.817875785035822
H	21.75136806219252		8.642885982052045		14.897712677752589
H	20.171224448554312		8.9855770465355		15.610836229952055
C	21.481379468590617		7.860275923075623		16.8651097905415
O	22.49914848107619		7.132075268502373		16.681101418984017
O	20.633426066033085		7.804683914710063		17.802058878057455
C	26.45506276008014		29.28604217787965		23.81304230837302
H	27.335414838882922		29.641610157161086		23.26894160330333
H	26.805891110635518		28.766139980254266		24.709772195937212
C	25.66221239628935		30.51320526138655		24.26730992455829
O	25.85466753477266		31.570349233921913		23.599929464922617
O	24.89971339232602		30.338367483871405		25.261299893023015
C	27.89394891929577		19.67109825227907		12.10277552292458
H	28.120910339682883		19.169055800363964		11.157293720915185
H	28.844441201590158		19.898831315969456		12.594919191888225
C	27.2117523301289		20.999935950867144		11.771568360350706
O	26.645002022093703		21.06081521563371		10.642375356314863
O	27.288016666956825		21.894464935744256		12.662629908754024
C	27.898752897191187		20.32663698404619		27.89173318119119
H	28.621669371774605		19.761455097361754		27.295532582785164
H	27.303551358368182		19.607219335608185		28.4624140843224
C	28.684570659203153		21.17706355883181		28.891815720687255
O	29.880831707140295		21.43631630877227		28.572854040015976
O	28.053297173961205		21.529250841131343		29.92981713779465
C	21.251959656837602		31.05060072083151		24.180457470981775
H	21.670708048783908		31.303520886674384		25.15932167083403
H	20.161764117490122		31.050028805500332		24.275202796986342
C	21.633608525357083		32.16884110333141		23.208458197265852
O	22.651926669144597		32.84909309692699		23.525119562358565
O	20.88968843472393		32.292582018471236		22.19294841318068
C	21.24510752727558		15.820442119959086		8.94858107768476
H	22.006406497139626		15.937621627215417		8.171286545758086
H	20.360625583915038		16.38355811657315		8.635379251179053
C	20.85934122019824		14.34084794289397		9.002297253264459
O	21.72288435289576		13.530785590289154		8.557234022067703
O	19.71843967675734		14.087111093839498		9.485981361444672
C	24.192625647621593		8.949580479361135		18.73882050969694
H	23.358267241587583		8.267151321699155		18.927580788498254
H	24.753358108540343		9.055553112694199		19.672550784538906
C	25.11509755939036		8.284265523870605		17.715442973301737
O	24.578306655530845		7.406021616809365		16.980234021952878
O	26.315127680127077		8.684161023325437		17.714863542208654
C	20.326990149144045		12.106301900579432		12.104843776954251
H	20.933980819252795		11.38199794428356		11.553082911093796
H	19.772036908483443		12.701196149744447		11.372975584660937
C	19.308585264303538		11.322687747207791		12.93532577505453
O	19.62074972030964		10.126414345175464		13.20266888212187
O	18.26420766482034		11.955557937949305		13.265082940660545
C	24.199691406005122		21.25782797784057		31.0485532611789
H	25.293181919969104		21.23862384894111		31.086018513133165
H	23.84218615111045		20.243259609942363		31.24941226018831
C	23.711185770910735		22.156692448165334		32.186228482175125
O	24.542557914415188		23.012091830350887		32.607062526498275
O	22.52858765431528		21.947558995349745		32.58336061439099
C	21.48980702170304		18.516469597063633		31.030551012696787
H	21.55849898135955		19.324461354634145		31.765346686456954
H	22.485830753706516		18.075076936659983		30.92753372032478
C	20.562784363712858		17.443287717625875		31.604841570880758
O	19.743551584125466		17.837438909759324		32.48432524184304
O	20.71550602912017		16.277539796958628		31.13826155065357
C	31.037012567746547		18.51665059137092		21.47432500705895
H	30.92905671802915		18.026583791381444		22.446782725347965
H	31.755103680567643		19.334004336532434		21.591718903228227
C	31.64437857947033		17.49962197715755		20.505996898578164
O	31.47485840482987		16.28312346013265		20.808293616003425
O	32.25058300740271		17.984896862300573		19.507491257980874
C	21.4835955831423		21.483823267628946		8.967210098887353
H	22.49385962471409		21.115672046132076		8.763924112608432
H	21.518539559666344		22.57744262328073		8.950508561579241
C	20.582988025088333		21.029782155948126		7.816709036184795
O	20.983818569822265		20.0190519164229		7.170374529742831
O	19.534638305085327		21.714065738941738		7.635855837387985
C	14.893986565844168		17.654072242234914		12.009376101453272
H	14.584354245502839		16.72443849701391		12.496616159070058
H	15.439476273615888		17.386786353717984		11.099154946779949
C	13.627671384354		18.403113451135194		11.589515257248037
O	12.578033092782187		18.11271759925229		12.232880428030079
O	13.766853890143825		19.23205524513487		10.644278372048001
C	10.518644983630324		26.435241739946157		16.421290866337962
H	10.30352044909516		26.064736949462702		15.414344203068334
H	10.82824309211759		27.48101311392304		16.331766777447807
C	9.212414439214339		26.403558157677903		17.2173171947024
O	8.333758477077591		25.5947383666719		16.800467962031224
O	9.15191625227961		27.189598074279743		18.206493749108226
C	26.449112711810393		16.18499581181139		10.711102408263882
H	26.083144372294875		16.219167285176134		9.680377695898676
H	26.43638698571498		15.139501468186054		11.034031117490512
C	27.9062772527287		16.65136808830498		10.702831954314277
O	28.245423704421597		17.378797131036567		9.725173676082704
O	28.614803534102318		16.259251567817845		11.67454393832185
C	31.008383568644177		24.274131862714903		21.223894479998528
H	30.88573346094558		25.30422724088891		20.875534880236916
H	31.383816638180974		23.68152074311214		20.38403414094129
C	32.08584381049802		24.275828154790826		22.310161735243504
O	32.27000739000596		25.37928266249058		22.900467556254878
O	32.67635301821159		23.17359324783303		22.50086077139532
C	22.419174777316766		25.10539953570241		12.075739564918791
H	22.025613999511563		25.187604265407707		11.057974246003157
H	23.424808814852415		24.67892492629687		12.009990739970062
C	22.550722575897225		26.521768977925245		12.639204541493214
O	21.812691015639896		27.397864730594247		12.102776834230186
O	23.3833344239653		26.664015082264612		13.580752518580379
C	8.971318493483338		21.48927277446474		21.484590991564744
H	8.160470562218782		21.24693953786626		20.790837301409734
H	8.987653460304825		22.576199766528884		21.6103932200082
C	8.624555650725469		20.86951965935084		22.839788987131847
O	7.823542260992569		19.891063247716886		22.808330492237623
O	9.176253355786889		21.40238573323977		23.845608268329105
C	10.863120965160176		16.21380701492017		26.61272647448256
H	10.25214358117446		15.47336477967535		26.08742096306694
H	10.191833514642493		16.827569913866704		27.22114374951197
C	11.79303429031839		15.458503030974908		27.56439716307689
O	12.026873308572618		14.252488677080608		27.263004182662925
O	12.22778471925831		16.1214686302946		28.5500227083806
C	12.016936684638665		22.35525021124786		25.1070041624219
H	10.966785892107431		22.1202356400836		24.90839547155843
H	12.162006192809807		23.42188136804215		24.91013839329315
C	12.272706963010437		22.118405975549837		26.596764670932664
O	11.477829635030206		21.319465653385624		27.171093350334232
O	13.251478106036473		22.747059936251794		27.093544586159965
C	14.891503887723497		12.015107825263728		17.650656979870256
H	13.836222301583735		12.300818228219558		17.698030890381922
H	14.970767259019278		10.97783528615479		17.99019536574338
C	15.319267657459651		12.057663876477633		16.18228810938635
O	14.625472041014476		12.799652284100986		15.428570733671801
O	16.320617036820224		11.346272435244702		15.88027705876944
C	12.007208630399756		14.898232138976814		17.656093038781965
H	12.469627487600139		14.641966793706057		16.69797466346566
H	11.069661049958585		15.421061228600623		17.443589873271318
C	11.658808314201345		13.590020504290301		18.368904050582206
O	12.32612414026892		12.575720209778277		18.014117441854403
O	10.740999492165862		13.663742284671242		19.236187800107874
C	18.5207200089529		31.032883902196584		21.48340417911774
H	18.086483563652614		31.627456417534876		20.673826399421888
H	19.327118759344337		31.620902798069082		21.932245076724023
C	17.439597993887066		30.837431255265958		22.548239120011306
O	16.245286110295964		30.944946424054844		22.14568645253366
O	17.85660434711672		30.589389465738797		23.716387230874936
C	24.198561666724753		31.05013931341504		21.257937216243448
H	25.26046070130976		31.00933492161824		20.996787087471656
H	24.072998224082106		31.825656196081525		22.01971848699706
C	23.42995534723186		31.493841057543815		20.011633445931945
O	24.005213288812158		31.280129927383406		18.905561617163865
O	22.30208453264832		32.02656504169861		20.22163730117488
C	30.90387892247808		19.019077264214342		15.767645091864997
H	31.573429658124766		18.335241802384367		15.237018272585415
H	31.472517978825838		19.47434054923179		16.584277373134267
C	30.51232975617983		20.133946524507678		14.79571104944024
O	30.604758938712425		19.849721935074534		13.566621034071993
O	30.138384400513434		21.219740251910157		15.325999545835328
C	19.670657217226122		12.106710953046266		27.894638524590444
H	20.313083297186978		12.706409636092689		28.546669328416854
H	20.31750309803307		11.459549137287919		27.29440914459689
C	18.812414897509772		11.207626345865837		28.786808345745087
O	18.645974812820917		11.60923724293293		29.97466162896896
O	18.36179558260335		10.159591245345958		28.2404076704055
C	13.42989607328219		10.682227636372426		23.642308641178538
H	13.96585825595552		9.819100997813685		24.048819271241676
H	12.654099696763119		10.305009745463709		22.968995962805216
C	12.731994231116474		11.387023646900523		24.807253104337782
O	13.230670136753618		11.183189119361021		25.951701820279098
O	11.731540585312029		12.097592686480109		24.50037661535967
C	21.25333755411255		24.18015815274716		31.04975747861243
H	22.06041364602869		24.61979586768417		31.64376152679926
H	20.824236614103327		23.357063142962307		31.6293179207153
C	20.167731188652574		25.244864836437678		30.880174174665598
O	20.549948843863966		26.44443475952965		31.002365420496982
O	19.004983843074783		24.810798142317545		30.63605585845926
C	17.657356748679867		25.108041975467618		27.98865360837934
H	17.87265935915703		26.171942589349257		27.84989404112726
H	17.846535990237857		24.864640795165965		29.038639512042487
C	16.16522890792944		24.897239723078904		27.724046508615714
O	15.60683945413724		25.76938367394124		26.99771656722001
O	15.650807701630729		23.873533086126585		28.260129133655877
