564     

Si	14.5366964035		14.5406029264		20.0119125987
Si	14.5358935115		14.5398291329		25.4679062594
Si	14.5387861885		20.0110707459		14.5382991027
Si	14.6325986156		20.0012461143		20.0010729132
Si	14.5444800001		19.996361116		25.4615379256
Si	14.538032773		25.4657516998		14.5368697569
Si	14.5419208987		25.4648197135		19.9903143685
Si	20.0086361402		14.5384956583		14.5373049666
Si	20.00035645		14.6305599231		19.999474222
Si	19.9921764287		14.5382716515		25.4619365757
Si	20.0007172689		20.0007068045		14.6293558636
Si	20.0023189441		20.0005374729		19.9992441023
Si	20.0044896511		20.0005652703		25.3694447625
Si	19.9924075618		25.4630935243		14.5375779503
Si	20.0036166249		25.3710542998		19.9994297065
Si	20.0159980334		25.4634431561		25.461765722
Si	25.4636385429		14.535753484		14.5337147741
Si	25.4631391142		14.5370711111		19.9882529377
Si	25.4627664809		19.9903152212		14.5360378415
Si	25.3722153293		19.999254971		19.9979907403
Si	25.4660180914		20.0082643342		25.4599536819
Si	25.4652058491		25.4616330918		20.0078129017
Si	25.4689038972		25.463369545		25.4622846794
Si	14.5878610401		11.8359148656		22.7547710855
Si	14.5093415953		17.2823032526		17.2819492168
Si	14.5741154822		17.2535996899		22.7524105007
Si	14.5929810551		17.2535649139		28.1699723221
Si	14.5910651558		22.754798124		11.8319129395
Si	14.5783953775		22.7485808603		17.2536215845
Si	14.5145431731		22.7235551975		22.7184951685
Si	14.593281288		28.1711391928		17.2476885774
Si	20.0837518823		11.8264049597		17.3530024051
Si	19.9147006274		11.8264932375		22.6458318555
Si	20.084359899		17.3546402319		11.8250004612
Si	19.9950166845		17.2707005726		17.2702444642
Si	20.0069722062		17.2706221256		22.7294416335
Si	19.9188608175		17.3540816281		28.173686271
Si	19.9160916116		22.6473480908		11.825476517
Si	20.0072228116		22.730219139		17.2698031733
Si	19.9987380916		22.7299898228		22.7289438841
Si	20.0908932879		22.646578486		28.1737678794
Si	19.9182355742		28.1752290537		17.3536403363
Si	20.0894318278		28.175029771		22.6462550123
Si	25.4095997998		11.8308856483		17.2447776373
Si	25.409416217		17.2470113727		11.829473611
Si	25.4252674743		17.2520973526		17.2504595454
Si	25.4930902562		17.2795102997		22.7172196118
Si	25.4925209523		22.7189288863		17.2787859322
Si	25.4277705797		22.7465484319		22.7454225347
Si	25.4154302621		22.7516505747		28.166786139
Si	25.4144207998		28.1682122974		22.7513829144
Si	11.826629811		17.3587102289		20.0874796316
Si	11.8301935667		17.2588183393		25.4159299524
Si	11.833197657		22.7553185454		14.5908424988
Si	11.8290406652		22.6503624812		19.9149714853
Si	17.3523114687		11.8276947211		20.0850436402
Si	17.2462619769		11.834411227		25.4103651852
Si	17.2804807274		17.2816567317		14.5092756458
Si	17.2699375465		17.2710703491		19.9966926391
Si	17.2552171484		17.2549819434		25.424772685
Si	17.2541542109		22.7486254197		14.5757973441
Si	17.2737282013		22.7311025228		20.0049559642
Si	17.287511424		22.7223700298		25.4902522384
Si	17.2494055209		28.1704026883		14.5905951042
Si	17.3574724039		28.175721926		19.9157037393
Si	22.7518831812		11.8316805313		14.5884358345
Si	22.6461280143		11.8256619408		19.913860951
Si	22.7472809831		17.2530239045		14.5745783294
Si	22.73104627		17.2700979195		20.0038182397
Si	22.7225225429		17.2798708727		25.4894116368
Si	22.7207562592		22.7197206933		14.5081707422
Si	22.7324276113		22.7295634941		19.9936213899
Si	22.7522677621		22.7471896722		25.4230784913
Si	22.6501351678		28.1745814163		20.0839919654
Si	22.7587367533		28.1689044465		25.4087868993
Si	28.1691825075		17.2464917005		14.5871563095
Si	28.1759104513		17.3525036689		19.9123632792
Si	28.1767552215		22.6452231083		20.082131922
Si	28.1729064182		22.7513878606		25.4072618507
Si	11.8280072892		14.5975341773		22.7571967778
Si	11.8275923275		20.0876869593		17.3544999146
Si	11.830643606		19.9225822294		22.646890279
Si	11.8345547832		25.4126449798		17.2472916324
Si	17.2796670609		14.510584725		17.2812699686
Si	17.2529718023		14.5773061188		22.7481791895
Si	17.2483271218		14.5932345471		28.1691488608
Si	17.3539815426		20.0861693366		11.8256834482
Si	17.2720088621		19.9959212071		17.2703456118
Si	17.2737593251		20.005982557		22.7288315862
Si	17.3591917519		19.9175633708		28.1743080736
Si	17.2484000424		25.4114474221		11.831702861
Si	17.2554685505		25.4258737062		17.2526290188
Si	17.2857067217		25.4925053799		22.719168206
Si	22.7517485761		14.5907125897		11.8299870913
Si	22.7474730198		14.5756295632		17.2512473563
Si	22.7206749419		14.5088220773		22.7180891092
Si	22.6464520052		19.9157718028		11.824746563
Si	22.7309300547		20.0050886767		17.2692025326
Si	22.7327044885		19.9944907648		22.7282762272
Si	22.6515776337		20.0841076016		28.1727468747
Si	22.7218892848		25.4909255271		17.2796177896
Si	22.7514494264		25.424208561		22.7461464535
Si	22.7594335635		25.4095480888		28.1681152868
Si	28.1693696069		14.5891530712		17.2440049445
Si	28.1755976878		19.9143706834		17.3509776494
Si	28.1771040443		20.0833871291		22.6435184883
Si	28.1725418273		25.4086999219		22.7504679083
Si	13.1421711989		15.9467054262		18.6915464342
Si	13.2222055074		15.8849943428		24.1280172972
Si	13.1876938852		21.3899098266		13.1872313446
Si	13.3082973689		21.364917367		18.6380649553
Si	13.1485249157		21.3175890112		24.0570673504
Si	13.1899399459		26.8159547241		18.6123997707
Si	19.1435533517		10.6033336888		19.1448212954
Si	18.1270488213		10.6009788915		23.5882992509
Si	18.6882270913		15.944340413		13.1421923003
Si	18.6220064606		15.9225323027		18.6232093408
Si	18.6399778317		15.9098631231		24.0915401692
Si	18.1318069391		16.4140839048		29.4019198963
Si	18.6376668781		21.3642620089		13.3055106571
Si	18.637627659		21.3655133716		18.6349299125
Si	18.6266529759		21.3778687412		24.0779047098
Si	19.1512244692		20.8554724502		29.3979963268
Si	18.6136609389		26.8147262965		13.1868747671
Si	18.63989876		26.6953535143		18.6369238081
Si	18.694062785		26.8582348334		24.0568690393
Si	23.5875505056		10.5985171944		18.1268631727
Si	24.119075687		15.8806324657		13.225113893
Si	24.0920393125		15.9085198636		18.6367567409
Si	24.0817912708		15.9196227767		24.0776163114
Si	24.0575101904		21.3115578006		13.1411595172
Si	24.0805437009		21.3770968431		18.6209656934
Si	24.09489567		21.3606593092		24.089482142
Si	23.5939035419		21.8703116857		29.400073728
Si	24.0596234875		26.8571730771		18.6875719609
Si	24.1243037597		26.7728109973		24.1181622963
Si	29.402696933		16.4107413592		18.1254476462
Si	29.4000280997		20.8537398882		19.1420362143
Si	29.404989659		21.8696896488		23.5850516772
Si	10.5984697344		16.4214577479		21.8756631175
Si	10.6003653645		21.8742118097		16.4127527018
Si	10.6049286325		20.8604174995		20.8557357166
Si	16.409339096		10.6024917232		21.8722557912
Si	15.9201085536		15.9221695635		15.921203076
Si	15.9074289452		15.9109676359		21.3646121533
Si	15.8817098056		15.8848997503		26.7747360971
Si	16.4124410718		21.8730215777		10.5986398816
Si	15.9105215634		21.3626444138		15.9090476693
Si	15.9250504818		21.3792588139		21.3772973017
Si	15.9503226671		21.3155645103		26.8575154119
Si	15.8827893361		26.7750948012		15.8809361068
Si	15.9476013757		26.8590217333		21.3118202534
Si	21.8701719658		10.5989966114		16.4104926307
Si	20.8541491202		10.6026402802		20.854154787
Si	21.8704593231		16.4126848677		10.597151264
Si	21.3612649532		15.9092319096		15.9081011137
Si	21.3787524525		15.9215820789		21.3766596861
Si	21.3141785876		15.9431114038		26.8564265362
Si	20.8551292759		20.8559149358		10.6013340928
Si	21.3789049267		21.3778371611		15.9205649175
Si	21.3677820614		21.3647163396		21.3636854702
Si	21.3684332404		21.3632354194		26.6933060834
Si	21.3135758919		26.857892104		15.9430127357
Si	21.3671513303		26.6947342073		21.3626822689
Si	21.3948632039		26.8139144492		26.8132274887
Si	26.7738922618		15.8797463666		15.8776122653
Si	26.8590989396		15.9421479993		21.3086535623
Si	26.8585728264		21.3108000941		15.9410751953
Si	26.6969709287		21.3621719959		21.3608650781
Si	26.8179211965		21.3864509628		26.8109014805
Si	26.8170784187		26.8125496918		21.3860726734
Si	10.6038042965		19.1496385305		19.1466411923
Si	10.6012680558		18.1395811413		23.59086599
Si	10.6007720907		23.5917166142		18.1288433115
Si	15.9414875691		13.1450725488		18.6900385231
Si	15.8790177672		13.2305738915		24.1213486779
Si	15.9436213142		18.6901285152		13.1427137803
Si	15.9230821703		18.6237783351		18.6228000936
Si	15.9116790836		18.6405361264		24.0909721402
Si	16.4162549579		18.1322739103		29.4025504211
Si	15.88182178		24.1212312229		13.2271763705
Si	15.9121249219		24.092717126		18.6386521864
Si	15.9262172445		24.0820230311		24.0794887318
Si	16.4153319985		29.4031799571		18.1295753756
Si	21.3868041173		13.187319588		13.1854894693
Si	21.3630498636		13.3061343213		18.6357817711
Si	21.3120251107		13.1426844271		24.0556750499
Si	21.3633133047		18.6374608268		13.3048248642
Si	21.3660112154		18.635383187		18.6343625442
Si	21.3807384772		18.6222763639		24.0775088905
Si	20.8603938129		19.144766825		29.3969410207
Si	21.3126599253		24.0574747288		13.142078386
Si	21.3801296634		24.0788172267		18.6217167457
Si	21.366052326		24.0910504247		24.0902792096
Si	21.8777336255		23.5877537776		29.4008831346
Si	20.8586122963		29.3985754613		19.1449144391
Si	21.8763513888		29.4019238331		23.5874992221
Si	26.8139699362		13.1858444839		18.6091484094
Si	26.8134917851		18.61165879		13.1843486397
Si	26.695782947		18.6359606675		18.6343736987
Si	26.8604305194		18.687291298		24.054074374
Si	26.8596691827		24.0559321119		18.6865478901
Si	26.7773846864		24.1185408442		24.1175253177
Si	13.1834702213		13.1932383414		21.3924861386
Si	13.1436142426		18.6906342826		15.9442061198
Si	13.3084344405		18.6395816644		21.3657488244
Si	13.1924398162		18.6218914745		26.8152241151
Si	13.2294412783		24.1209682341		15.8814597836
Si	13.146622098		24.0602576248		21.3109927254
Si	18.6873728555		13.1437867792		15.9432516198
Si	18.636579681		13.3071400046		21.3630691947
Si	18.6122798188		13.1887111862		26.8135683243
Si	19.1448981979		19.1462835244		10.6014560269
Si	18.6232886247		18.6232401079		15.921110389
Si	18.6378605305		18.6357373335		21.363848613
Si	18.6409651136		18.6381458665		26.6939967903
Si	18.1295367415		23.5895911546		10.5985947816
Si	18.6406232192		24.0921068632		15.9087348958
Si	18.6266095746		24.0795601588		21.3771131417
Si	18.6958322539		24.0585920739		26.857360751
Si	18.1316791122		29.4028628213		16.4123493405
Si	19.1492203097		29.398857521		20.8552758821
Si	24.1193391289		13.2266367739		15.8784184622
Si	24.057482272		13.142178821		21.3094385195
Si	23.5876416562		18.1291826336		10.5970535869
Si	24.0918784422		18.6385366612		15.9073616893
Si	24.0808278808		18.6218442653		21.3757386222
Si	24.0608572295		18.6875079771		26.8553513147
Si	24.0812850633		24.0794244714		15.9192342586
Si	24.0944450157		24.0906899977		21.3599605713
Si	24.1250724236		24.1189641293		26.7720043001
Si	23.592753857		29.4016055039		21.8702550884
Si	29.4025038654		18.1277753225		16.4087798567
Si	29.4002620787		19.1436376253		20.8518018381
Si	29.4047358688		23.5866948529		21.8683666767
C	18.5207200089529		31.032883902196584		21.48340417911774
H	18.086483563652614		31.627456417534876		20.673826399421888
H	19.327118759344337		31.620902798069082		21.932245076724023
C	17.439597993887066		30.837431255265958		22.548239120011306
F	16.2599994134766		31.397958196930155		22.17881640040383
F	17.791301363377862		31.39748845088917		23.733454000157302
F	17.197360238648468		29.523403685661442		22.78645055877152
C	31.008383568644177		24.274131862714903		21.223894479998528
H	30.839019567080054		25.163433500476234		20.609116162351263
H	31.534695833488804		23.538974249482393		20.607419012943755
C	31.940206258246537		24.671981284690155		22.370333450278316
F	32.248357337713585		25.9933112918659		22.33503000341764
F	33.11268589654662		23.989647553825762		22.327838602397946
F	31.38193431640516		24.426799931453772		23.58289718727437
C	21.24510752727558		15.820442119959086		8.94858107768476
H	22.006406497139626		15.937621627215417		8.171286545758086
H	20.360625583915038		16.38355811657315		8.635379251179053
C	20.85934122019824		14.34084794289397		9.002297253264459
F	21.585705674717225		13.59776125381875		8.129180273283794
F	19.551426755510015		14.148683713708031		8.694845961706449
F	21.05904773528505		13.811551354795387		10.236013064526954
C	31.034054235787764		21.481310085486296		18.512978002319485
H	30.95518156899782		22.518407006262		18.172826525546263
H	31.390525243630748		20.881115167304355		17.670245661266893
C	32.10392403136347		21.430403022961556		19.605537882371788
F	32.60774384466261		22.661209784415504		19.876456173903506
F	33.15047054549888		20.642311410912463		19.250931566341063
F	31.612560112860965		20.937311891056908		20.770662299990292
C	8.947816138008154		15.832616138189962		21.252599506467586
H	8.985284365702304		14.775867110037005		20.97086989990974
H	8.631699481752928		16.40049639860701		20.372210054368868
C	7.86457898494481		15.99073695150766		22.32147512066176
F	7.301884948694628		14.800106666425439		22.64994331518522
F	6.860068976208127		16.803331087108223		21.90585023240866
F	8.3595488123118		16.525272413310006		23.46662532188955
C	10.863120965160176		16.21380701492017		26.61272647448256
H	10.25214358117446		15.47336477967535		26.08742096306694
H	10.191833514642493		16.827569913866704		27.22114374951197
C	11.79303429031839		15.458503030974908		27.56439716307689
F	11.640443151429633		14.114061539494271		27.45805136241721
F	11.559868156749255		15.783120903907214		28.86145168210426
F	13.099230762882181		15.730690820602563		27.31568677821224
C	30.90387892247808		19.019077264214342		15.767645091864997
H	31.573429658124766		18.335241802384367		15.237018272585415
H	31.472517978825838		19.47434054923179		16.584277373134267
C	30.51232975617983		20.133946524507678		14.79571104944024
F	31.049760549240503		19.941927384025494		13.564283746933649
F	30.93256982292595		21.350293499259166		15.226978898826344
F	29.167112956686754		20.21315115416978		14.63381397626814
C	13.42989607328219		10.682227636372426		23.642308641178538
H	13.96585825595552		9.819100997813685		24.048819271241676
H	12.654099696763119		10.305009745463709		22.968995962805216
C	12.731994231116474		11.387023646900523		24.807253104337782
F	13.005962838242443		10.790576105834344		25.99523792834252
F	11.382394703335075		11.384101925664252		24.663495625376722
F	13.11681451619851		12.684001377611963		24.916130960341587
C	16.198333368684384		29.289177948533045		13.540266942182377
H	15.47042511632463		29.83444649141389		14.148810893011872
H	15.643250549085499		28.719742026003953		12.788516244530829
C	17.05431366160939		30.321207955354314		12.803305747040792
F	16.714500085386344		31.59149682751849		13.13947434115745
F	16.92158025786411		30.217966568017065		11.456525626133569
F	18.374117313378566		30.17570667142352		13.084446228742094
C	21.245189981672056		8.950420621719651		15.817875785035822
H	21.75136806219252		8.642885982052045		14.897712677752589
H	20.171224448554312		8.9855770465355		15.610836229952055
C	21.481379468590617		7.860275923075623		16.8651097905415
F	22.273777625486325		6.866381750042533		16.38929896388961
F	20.319336206252288		7.284371656757195		17.26521398583358
F	22.084808007289745		8.351000678964244		17.977384705273238
C	12.007208630399756		14.898232138976814		17.656093038781965
H	11.000449329339581		15.32526641355571		17.616452329104863
H	11.923207176830259		13.885731544484617		18.062651300106413
C	12.5195743847788		14.781272153917532		16.21918604957406
F	11.626667104586417		15.273307746944713		15.323231824641876
F	12.760086695144997		13.491307667620202		15.872430967053305
F	13.679104457360962		15.4634227184549		16.03959514952911
C	21.25333755411255		24.18015815274716		31.04975747861243
H	22.06041364602869		24.61979586768417		31.64376152679926
H	20.824236614103327		23.357063142962307		31.6293179207153
C	20.167731188652574		25.244864836437678		30.880174174665598
F	20.5211840162534		26.42229154139822		31.455373150765816
F	18.99406821146508		24.863574991466308		31.445175860239274
F	19.913377647497953		25.502612264729237		29.572136402806088
C	22.419174777316766		25.10539953570241		12.075739564918791
H	22.025613999511563		25.187604265407707		11.057974246003157
H	23.424808814852415		24.67892492629687		12.009990739970062
C	22.550722575897225		26.521768977925245		12.639204541493214
F	22.10709754170154		27.457363773237752		11.761721996356831
F	23.83951317382211		26.831107320711716		12.931475338841388
F	21.83577557068204		26.678807834415075		13.782131420425635
C	16.360733959052194		13.435755030800841		29.32328037271327
H	16.20958478632975		13.894800366418165		30.305077324854242
H	16.928884905709904		12.512367421391094		29.471817043271425
C	14.985734814126946		13.05218255465963		28.77269022841196
F	13.984804690190971		13.423878827100616		29.610602620640996
F	14.871771894123746		11.712427809901168		28.58785702965825
F	14.73960652499187		13.640561557710978		27.574640443404782
C	24.198561666724753		31.05013931341504		21.257937216243448
H	23.888396008609426		31.858921703567752		21.926639136163494
H	23.803095489876082		31.271966079531815		20.261994092012518
C	25.725686406013008		31.080121230735962		21.16910526654318
F	26.25869421452769		32.043570152962445		21.962695374421923
F	26.153063509153625		31.32602583249956		19.90460007748992
F	26.276894932079014		29.900466990536046		21.552090002101274
C	20.326990149144045		12.106301900579432		12.104843776954251
H	20.933980819252795		11.38199794428356		11.553082911093796
H	19.772036908483443		12.701196149744447		11.372975584660937
C	19.308585264303538		11.322687747207791		12.93532577505453
F	19.47041837028484		9.982056457860068		12.798818629343
F	18.03290713137585		11.60778393019465		12.570005227840923
F	19.414378608910127		11.602564586184632		14.259172063919397
C	19.670657217226122		12.106710953046266		27.894638524590444
H	20.313083297186978		12.706409636092689		28.546669328416854
H	20.31750309803307		11.459549137287919		27.29440914459689
C	18.812414897509772		11.207626345865837		28.786808345745087
F	19.044821676729605		11.434418297276599		30.104635689803466
F	19.056646218166712		9.891717984529055		28.561353513962498
F	17.48628063870453		11.40679721313912		28.577544955366644
C	16.19713040249769		26.462159063255015		10.713473371422387
H	16.56658961150779		26.436349670085676		9.683751216711775
H	16.194146437626284		27.506722119043665		11.03963657648256
C	14.74672313785025		25.97531118468896		10.699405329851047
F	14.349218813828353		25.609074199976472		9.454424529833393
F	13.887489484755896		26.93641063091519		11.123786076885786
F	14.567800431517771		24.89856439727711		11.506062192622899
C	15.812144766805936		18.74493984917434		31.051577808489156
H	14.752566606415213		19.01512865487799		31.009315779486208
H	16.368679333163662		19.6307687788548		31.372638085836236
C	15.976460409406311		17.675317428311345		32.13315454935594
F	14.786647426423766		17.33246216159591		32.68895284065564
F	16.779275568014757		18.0974784027111		33.14278892248433
F	16.526089177281744		16.53727882137351		31.63831253422109
C	27.89394891929577		19.67109825227907		12.10277552292458
H	28.120910339682883		19.169055800363964		11.157293720915185
H	28.844441201590158		19.898831315969456		12.594919191888225
C	27.2117523301289		20.999935950867144		11.771568360350706
F	27.037383245307186		21.15849944793446		10.434942216413585
F	27.936942373779473		22.06174757064944		12.206021026685459
F	25.985687572974545		21.094887928214376		12.345886744665435
C	13.568652084568587		23.58042876311156		10.515628183250278
H	14.199712395216894		24.133706199172835		9.813388259242876
H	12.857744512932491		24.288291958578238		10.952713345425995
C	12.768012524964636		22.553846711464175		9.711883455844472
F	13.092016458379028		22.580492034632115		8.394147561636046
F	11.43194631495514		22.777043661506898		9.796758885519274
F	12.98757363534181		21.28787808967757		10.149157558395341
C	26.45506276008014		29.28604217787965		23.81304230837302
H	27.335414838882922		29.641610157161086		23.26894160330333
H	26.805891110635518		28.766139980254266		24.709772195937212
C	25.66221239628935		30.51320526138655		24.26730992455829
F	26.229750827948028		31.668560959503615		23.836996377921846
F	25.582038958846308		30.590059212293475		25.619995891351234
F	24.39007930006363		30.495688550317308		23.794591378676618
C	25.10417047038786		27.87382083501756		17.532172057463505
H	24.48355292277049		28.424399429896734		16.818595839915385
H	25.789372802919537		27.242016171695308		16.95874032761469
C	25.9458984467326		28.894501878752497		18.300679845842225
F	25.659285745215886		30.167846579835903		17.928439546368747
F	27.274737021868667		28.710314049471062		18.094872850395195
F	25.736844456310603		28.81565666843302		19.63940018078837
C	15.803325136836067		8.953903104394003		21.260289577065766
H	16.268983229239833		8.131529765079241		21.81197660751253
H	16.034915936654112		8.816062109792828		20.199691217861396
C	14.287734624878468		8.825450269759767		21.425774529066018
F	13.954211927685716		7.784750573170197		22.230649153449004
F	13.665453887629612		8.622977800323609		20.236713883947594
F	13.743362505168022		9.941453903690677		21.973759161729163
C	21.251959656837602		31.05060072083151		24.180457470981775
H	21.670708048783908		31.303520886674384		25.15932167083403
H	20.161764117490122		31.050028805500332		24.275202796986342
C	21.633608525357083		32.16884110333141		23.208458197265852
F	22.40707996501019		33.11239798507857		23.80306626309453
F	20.54027655742671		32.80449931126674		22.715855431149034
F	22.331231537572528		31.696509210809527		22.144354353914956
C	25.10651827518044		12.011489128919521		22.348988558821894
H	24.527064489925973		11.577405982635636		23.169536595603745
H	25.952861614849468		12.54899598135653		22.78750042055558
C	25.669399471801537		10.858014619795242		21.51618527154998
F	25.26242900451488		9.651168261519874		21.98524104144729
F	27.026596587164494		10.848160799199285		21.519724603426027
F	25.276334980700273		10.932960154391129		20.219275195261172
C	17.657356748679867		25.108041975467618		27.98865360837934
H	17.87265935915703		26.171942589349257		27.84989404112726
H	17.846535990237857		24.864640795165965		29.038639512042487
C	16.16522890792944		24.897239723078904		27.724046508615714
F	15.5509403861087		26.04882280525929		27.351726181752937
F	15.516995719130744		24.4395882948177		28.825156193320353
F	15.95079293201489		23.99466810075865		26.733352836426498
C	10.518644983630324		26.435241739946157		16.421290866337962
H	10.30352044909516		26.064736949462702		15.414344203068334
H	10.82824309211759		27.48101311392304		16.331766777447807
C	9.212414439214339		26.403558157677903		17.2173171947024
F	8.189002708691412		25.891114928915147		16.487833283897462
F	8.833667206442126		27.644570173176238		17.615479656087384
F	9.32161620242394		25.64363639451465		18.336551826976958
C	27.880531874482887		12.090079506846548		19.668084076411596
H	27.328826652690736		11.207184594660564		20.00514767587522
H	28.233375113069346		12.62128554138576		20.55736756088263
C	29.110239039286597		11.604087935993407		18.89832276152878
F	29.146270824481398		10.250385600500026		18.8071739472993
F	30.265559244253915		11.992655110064968		19.49526866345651
F	29.136091832331136		12.08815849023103		17.630608438460733
C	24.199691406005122		21.25782797784057		31.0485532611789
H	25.293181919969104		21.23862384894111		31.086018513133165
H	23.84218615111045		20.243259609942363		31.24941226018831
C	23.711185770910735		22.156692448165334		32.186228482175125
F	24.743934353156735		22.705296841051105		32.87512614872315
F	22.95583856691152		21.471719880742132		33.08197220550689
F	22.950261716427036		23.18277432507357		31.727706030719848
C	29.322887340934642		13.431171547159417		16.356268707068953
H	28.795237462501024		12.539001688199757		16.00539480329028
H	30.134377413613798		13.101214736733118		17.012100761101447
C	29.955294121337694		14.106665115544347		15.137798312200516
F	29.651563914777356		13.45644178153689		13.985811338951667
F	31.309051693647177		14.14422874170274		15.227369758569129
F	29.531248625684945		15.387928715922985		14.994127587063545
C	26.449112711810393		16.18499581181139		10.711102408263882
H	26.083144372294875		16.219167285176134		9.680377695898676
H	26.43638698571498		15.139501468186054		11.034031117490512
C	27.9062772527287		16.65136808830498		10.702831954314277
F	28.312639288218058		17.015767113317697		9.460173652252635
F	28.750594681755132		15.676944853869387		11.12676717794434
F	28.097946907060543		17.72300925816282		11.513350442674685
C	8.951536551401952		21.262108524431454		15.807531161154646
H	8.450973672359874		22.016237780352917		15.192535374755714
H	8.28791275477874		21.02080414052765		16.643520974946775
C	9.108047482422426		19.998931889964243		14.958538158470176
F	8.640443643753086		20.17747293228703		13.696957342482555
F	8.431478573955221		18.948035942379114		15.487656154804307
F	10.407118553588969		19.62095906819632		14.850634630432353
C	21.4835955831423		21.483823267628946		8.967210098887353
H	22.554278756340672		21.28836175292544		8.853516270120451
H	21.330744258074194		22.56328370211553		8.872843999556295
C	20.761077542764		20.80813033451988		7.800031131687221
F	21.621215672850663		20.130357421925407		6.998219005859589
F	20.11455381911704		21.70877327175328		7.017124362669822
F	19.832308781954836		19.916446576908307		8.229427147803712
C	31.037012567746547		18.51665059137092		21.47432500705895
H	30.92905671802915		18.026583791381444		22.446782725347965
H	31.755103680567643		19.334004336532434		21.591718903228227
C	31.64437857947033		17.49962197715755		20.505996898578164
F	31.828261786228254		16.29022724935408		21.09393207156375
F	32.854356714699		17.903879310564204		20.04272316172759
F	30.851720812342727		17.298067433808047		19.422871003971515
C	14.891503887723497		12.015107825263728		17.650656979870256
H	13.836222301583735		12.300818228219558		17.698030890381922
H	14.970767259019278		10.97783528615479		17.99019536574338
C	15.319267657459651		12.057663876477633		16.18228810938635
F	14.311525968689963		12.47548721021451		15.374824946449102
F	15.70700872543895		10.836736304913721		15.73386156713297
F	16.36266263749243		12.902881289317735		15.98473630864973
C	27.898752897191187		20.32663698404619		27.89173318119119
H	28.621669371774605		19.761455097361754		27.295532582785164
H	27.303551358368182		19.607219335608185		28.4624140843224
C	28.684570659203153		21.17706355883181		28.891815720687255
F	30.02484387654825		21.035486829852967		28.731378375660995
F	28.400445129554967		20.838673788082822		30.175115639277834
F	28.406262419108554		22.49879046364601		28.75886916794621
C	18.523692459966405		21.483376440470483		31.032481002895086
H	17.498918311909122		21.85726784662544		30.945664474071716
H	19.145767779621846		22.302033486638916		31.407082464897524
C	18.526812382384634		20.376273593406346		32.08851772200413
F	17.281922941395194		20.138216877246588		32.5740027254844
F	19.312716902911486		20.692372747140727		33.148955859862184
F	18.98887236915164		19.20239994750639		31.58790459254144
C	17.648108403315334		14.895479668803734		12.01186303225944
H	17.1305122946126		14.107839707916467		12.567930931053544
H	18.261102883255884		14.412921695083924		11.244478586585792
C	16.58666951095121		15.735547387494714		11.298747539656627
F	15.329914018935739		15.311983628000302		11.587322978548976
F	16.7234669713092		15.682419191639246		9.949467181745513
F	16.655972633986647		17.043744960858756		11.653583360117251
C	14.898603654701134		27.98892619341846		22.3522623192276
H	14.26977729041354		28.631193815674173		21.728111974535842
H	15.517792998216931		28.637804427085296		22.979211210804802
C	13.976098784305112		27.1918853060159		23.27671382574601
F	12.667281924717589		27.45924114556824		23.036639478685117
F	14.205524281026435		27.473968363060912		24.584340196305398
F	14.142355061474028		25.85352981782784		23.12421559349779
C	18.515839985919488		18.518713327113705		8.967429890812232
H	18.043187911987282		17.537715276143413		9.075766351895657
H	19.329454360521268		18.417634585052255		8.24264160776357
C	17.4778429128006		19.471667925209577		8.371326200029696
F	16.277197097369864		18.863900493516155		8.194734060166525
F	17.86475921064217		19.945809400690777		7.159889336510561
F	17.264125438575753		20.548541118714716		9.169299407362498
C	8.971318493483338		21.48927277446474		21.484590991564744
H	8.160470562218782		21.24693953786626		20.790837301409734
H	8.987653460304825		22.576199766528884		21.6103932200082
C	8.624555650725469		20.86951965935084		22.839788987131847
F	7.463624652243498		20.16805052677825		22.79186527889151
F	8.478494103524646		21.813459879179476		23.8040174457552
F	9.588290780889475		20.013605283645433		23.264897742215283
C	14.893986565844168		17.654072242234914		12.009376101453272
H	14.996610411215302		16.588988021649236		12.23863119348099
H	15.180371605515923		17.798136953602988		10.963081551199549
C	13.413536882072611		18.017366956479854		12.14047028295034
F	12.667369346134727		16.95745793429123		12.54289205422464
F	12.89252439317255		18.445251668111695		10.96252533747882
F	13.215317734831086		19.00897250475153		13.045743655807218
C	21.48980702170304		18.516469597063633		31.030551012696787
H	21.55849898135955		19.324461354634145		31.765346686456954
H	22.485830753706516		18.075076936659983		30.92753372032478
C	20.562784363712858		17.443287717625875		31.604841570880758
F	20.057559995269322		17.805630801662765		32.81131255519056
F	21.20725838565447		16.262164544885486		31.782872243682043
F	19.505949770868156		17.199802170984306		30.78880988936133
C	12.016936684638665		22.35525021124786		25.1070041624219
H	10.966785892107431		22.1202356400836		24.90839547155843
H	12.162006192809807		23.42188136804215		24.91013839329315
C	12.272706963010437		22.118405975549837		26.596764670932664
F	11.168511425607015		21.647187146612517		27.22986927479628
F	12.638892383870779		23.259560744954594		27.233763622591226
F	13.263866840496714		21.214044556065698		26.80127577945739
C	25.12896277827351		14.833577584490794		25.16552148852479
H	25.812110134701946		15.429049492035896		25.778886668926678
H	25.733315605460056		14.142313042610342		24.570194426053714
C	24.26319835712763		13.998455537838003		26.110996572423034
F	24.541753744851697		14.259410710740276		27.413465651789387
F	24.450787683940394		12.667327446512871		25.92390866915016
F	22.940112049895205		14.241994705842652		25.93148732318593
C	24.192625647621593		8.949580479361135		18.73882050969694
H	23.44874836670689		8.468799276659276		19.381463469564626
H	25.114043931073518		9.056818297764824		19.319330384827865
C	24.484298998821636		8.000560252952925		17.57469540212995
F	23.722427577638626		6.878925171760281		17.634721156790366
F	25.780897770228222		7.5995763490372		17.562983468581564
F	24.238279307386065		8.58379323504106		16.37410976448034
